<?xml version="1.0" encoding="UTF-8"?>

<!-- generated on Do 18 Mär 2021 10:21:35 CET by Eclipse SUMO netedit Version v1_7_0+1228-0b1a97d77e
<configuration xmlns:xsi="http://www.w3.org/2001/XMLSchema-instance" xsi:noNamespaceSchemaLocation="http://sumo.dlr.de/xsd/netconvertConfiguration.xsd">

    <input>
        <sumo-net-file value="/home/kons/GIT/sumo/parameterization_evaluation/oranienstr_new_params/oranienstr_ped.net.xml"/>
    </input>

    <output>
        <output-file value="/home/kons/GIT/sumo/parameterization_evaluation/oranienstr_new_params/oranienstr_ped.net.xml"/>
    </output>

    <processing>
        <geometry.min-radius.fix.railways value="false"/>
        <geometry.max-grade.fix value="false"/>
        <offset.disable-normalization value="true"/>
        <lefthand value="false"/>
    </processing>

    <junctions>
        <no-turnarounds value="true"/>
        <junctions.corner-detail value="5"/>
        <junctions.limit-turn-speed value="5.5"/>
        <rectangular-lane-cut value="false"/>
    </junctions>

    <pedestrian>
        <walkingareas value="false"/>
    </pedestrian>

    <netedit>
        <route-files value="/home/kons/GIT/sumo/parameterization_evaluation/oranienstr_new_params/ped_route.rou.xml"/>
    </netedit>

    <report>
        <aggregate-warnings value="5"/>
    </report>

</configuration>
-->

<routes xmlns:xsi="http://www.w3.org/2001/XMLSchema-instance" xsi:noNamespaceSchemaLocation="http://sumo.dlr.de/xsd/routes_file.xsd">
    <vType id="pType_0" vClass="pedestrian"/>
    <route edges="172425925 241020237#0 241020237#1 241020237#2 241020237#3 -195337820#3 -195337820#2 -195337820#1 -195337820#0 -66514458#5 -66514458#0 -32977011#4 -32977011#3 -32977011#2 -4686498#0 370648473#0 370648473#1 370648473#2 -370648471 -4612758#3 -4612758#2 -4612758#1 -4612758#0 170780644 183419650 262117177 -95926536#11" color="yellow" id="route_0"/>
    <personFlow id="personFlow_0" begin="0.00" end="3600.00" number="1800">
        <walk route="route_0"/>
    </personFlow>
</routes>
