<configuration>
    <input>    
        <net-file value="oranienstr_ped.net.xml"/>
        <route-files value="oranienstr_new_params_ped.trips.xml"/>
    </input>
    <time>
        <begin value="0"/>
        <end value="20000"/>
    </time>
    <tls.actuated.show-detectors value="true"/>
</configuration>
