<additional xmlns:xsi="http://www.w3.org/2001/XMLSchema-instance" xsi:noNamespaceSchemaLocation="http://sumo.dlr.de/xsd/additional_file.xsd">
    
    
    
    
    
    
    
    
    
    
    
    
    
    
    
    
    
    
    
    
    
    
    
    
    
    
    <vTypeDistribution id="vehDist">
        <vType id="vehDist0" accel="0.444" maxSpeed="6.274" speedDev="0.000" speedFactor="4.000" vClass="bicycle">
            <param key="has.fcd.device" value="true"/>
        </vType>
        <vType id="vehDist1" accel="0.994" maxSpeed="6.605" speedDev="0.000" speedFactor="4.000" vClass="bicycle">
            <param key="has.fcd.device" value="true"/>
        </vType>
        <vType id="vehDist2" accel="0.871" maxSpeed="6.499" speedDev="0.000" speedFactor="4.000" vClass="bicycle">
            <param key="has.fcd.device" value="true"/>
        </vType>
        <vType id="vehDist3" accel="0.844" maxSpeed="6.312" speedDev="0.000" speedFactor="4.000" vClass="bicycle">
            <param key="has.fcd.device" value="true"/>
        </vType>
        <vType id="vehDist4" accel="0.587" maxSpeed="6.515" speedDev="0.000" speedFactor="4.000" vClass="bicycle">
            <param key="has.fcd.device" value="true"/>
        </vType>
        <vType id="vehDist5" accel="1.001" maxSpeed="6.284" speedDev="0.000" speedFactor="4.000" vClass="bicycle">
            <param key="has.fcd.device" value="true"/>
        </vType>
        <vType id="vehDist6" accel="0.528" maxSpeed="7.189" speedDev="0.000" speedFactor="4.000" vClass="bicycle">
            <param key="has.fcd.device" value="true"/>
        </vType>
        <vType id="vehDist7" accel="0.805" maxSpeed="6.676" speedDev="0.000" speedFactor="4.000" vClass="bicycle">
            <param key="has.fcd.device" value="true"/>
        </vType>
        <vType id="vehDist8" accel="1.026" maxSpeed="5.626" speedDev="0.000" speedFactor="4.000" vClass="bicycle">
            <param key="has.fcd.device" value="true"/>
        </vType>
        <vType id="vehDist9" accel="1.009" maxSpeed="6.327" speedDev="0.000" speedFactor="4.000" vClass="bicycle">
            <param key="has.fcd.device" value="true"/>
        </vType>
        <vType id="vehDist10" accel="0.572" maxSpeed="5.888" speedDev="0.000" speedFactor="4.000" vClass="bicycle">
            <param key="has.fcd.device" value="true"/>
        </vType>
        <vType id="vehDist11" accel="0.582" maxSpeed="5.878" speedDev="0.000" speedFactor="4.000" vClass="bicycle">
            <param key="has.fcd.device" value="true"/>
        </vType>
        <vType id="vehDist12" accel="0.991" maxSpeed="6.219" speedDev="0.000" speedFactor="4.000" vClass="bicycle">
            <param key="has.fcd.device" value="true"/>
        </vType>
        <vType id="vehDist13" accel="0.680" maxSpeed="7.646" speedDev="0.000" speedFactor="4.000" vClass="bicycle">
            <param key="has.fcd.device" value="true"/>
        </vType>
        <vType id="vehDist14" accel="0.685" maxSpeed="7.966" speedDev="0.000" speedFactor="4.000" vClass="bicycle">
            <param key="has.fcd.device" value="true"/>
        </vType>
        <vType id="vehDist15" accel="1.063" maxSpeed="5.498" speedDev="0.000" speedFactor="4.000" vClass="bicycle">
            <param key="has.fcd.device" value="true"/>
        </vType>
        <vType id="vehDist16" accel="0.711" maxSpeed="5.719" speedDev="0.000" speedFactor="4.000" vClass="bicycle">
            <param key="has.fcd.device" value="true"/>
        </vType>
        <vType id="vehDist17" accel="0.891" maxSpeed="6.050" speedDev="0.000" speedFactor="4.000" vClass="bicycle">
            <param key="has.fcd.device" value="true"/>
        </vType>
        <vType id="vehDist18" accel="0.838" maxSpeed="6.200" speedDev="0.000" speedFactor="4.000" vClass="bicycle">
            <param key="has.fcd.device" value="true"/>
        </vType>
        <vType id="vehDist19" accel="0.836" maxSpeed="5.652" speedDev="0.000" speedFactor="4.000" vClass="bicycle">
            <param key="has.fcd.device" value="true"/>
        </vType>
        <vType id="vehDist20" accel="1.124" maxSpeed="6.076" speedDev="0.000" speedFactor="4.000" vClass="bicycle">
            <param key="has.fcd.device" value="true"/>
        </vType>
        <vType id="vehDist21" accel="0.473" maxSpeed="6.149" speedDev="0.000" speedFactor="4.000" vClass="bicycle">
            <param key="has.fcd.device" value="true"/>
        </vType>
        <vType id="vehDist22" accel="0.850" maxSpeed="6.562" speedDev="0.000" speedFactor="4.000" vClass="bicycle">
            <param key="has.fcd.device" value="true"/>
        </vType>
        <vType id="vehDist23" accel="0.970" maxSpeed="7.095" speedDev="0.000" speedFactor="4.000" vClass="bicycle">
            <param key="has.fcd.device" value="true"/>
        </vType>
        <vType id="vehDist24" accel="1.269" maxSpeed="5.619" speedDev="0.000" speedFactor="4.000" vClass="bicycle">
            <param key="has.fcd.device" value="true"/>
        </vType>
        <vType id="vehDist25" accel="0.530" maxSpeed="6.306" speedDev="0.000" speedFactor="4.000" vClass="bicycle">
            <param key="has.fcd.device" value="true"/>
        </vType>
        <vType id="vehDist26" accel="1.206" maxSpeed="5.908" speedDev="0.000" speedFactor="4.000" vClass="bicycle">
            <param key="has.fcd.device" value="true"/>
        </vType>
        <vType id="vehDist27" accel="0.776" maxSpeed="6.324" speedDev="0.000" speedFactor="4.000" vClass="bicycle">
            <param key="has.fcd.device" value="true"/>
        </vType>
        <vType id="vehDist28" accel="0.830" maxSpeed="6.079" speedDev="0.000" speedFactor="4.000" vClass="bicycle">
            <param key="has.fcd.device" value="true"/>
        </vType>
        <vType id="vehDist29" accel="0.769" maxSpeed="6.488" speedDev="0.000" speedFactor="4.000" vClass="bicycle">
            <param key="has.fcd.device" value="true"/>
        </vType>
        <vType id="vehDist30" accel="0.918" maxSpeed="6.293" speedDev="0.000" speedFactor="4.000" vClass="bicycle">
            <param key="has.fcd.device" value="true"/>
        </vType>
        <vType id="vehDist31" accel="0.705" maxSpeed="5.678" speedDev="0.000" speedFactor="4.000" vClass="bicycle">
            <param key="has.fcd.device" value="true"/>
        </vType>
        <vType id="vehDist32" accel="0.913" maxSpeed="6.368" speedDev="0.000" speedFactor="4.000" vClass="bicycle">
            <param key="has.fcd.device" value="true"/>
        </vType>
        <vType id="vehDist33" accel="0.768" maxSpeed="6.310" speedDev="0.000" speedFactor="4.000" vClass="bicycle">
            <param key="has.fcd.device" value="true"/>
        </vType>
        <vType id="vehDist34" accel="0.781" maxSpeed="6.491" speedDev="0.000" speedFactor="4.000" vClass="bicycle">
            <param key="has.fcd.device" value="true"/>
        </vType>
        <vType id="vehDist35" accel="0.709" maxSpeed="5.925" speedDev="0.000" speedFactor="4.000" vClass="bicycle">
            <param key="has.fcd.device" value="true"/>
        </vType>
        <vType id="vehDist36" accel="0.980" maxSpeed="6.180" speedDev="0.000" speedFactor="4.000" vClass="bicycle">
            <param key="has.fcd.device" value="true"/>
        </vType>
        <vType id="vehDist37" accel="0.478" maxSpeed="6.957" speedDev="0.000" speedFactor="4.000" vClass="bicycle">
            <param key="has.fcd.device" value="true"/>
        </vType>
        <vType id="vehDist38" accel="1.157" maxSpeed="6.452" speedDev="0.000" speedFactor="4.000" vClass="bicycle">
            <param key="has.fcd.device" value="true"/>
        </vType>
        <vType id="vehDist39" accel="0.798" maxSpeed="6.571" speedDev="0.000" speedFactor="4.000" vClass="bicycle">
            <param key="has.fcd.device" value="true"/>
        </vType>
        <vType id="vehDist40" accel="0.831" maxSpeed="6.271" speedDev="0.000" speedFactor="4.000" vClass="bicycle">
            <param key="has.fcd.device" value="true"/>
        </vType>
        <vType id="vehDist41" accel="0.580" maxSpeed="6.806" speedDev="0.000" speedFactor="4.000" vClass="bicycle">
            <param key="has.fcd.device" value="true"/>
        </vType>
        <vType id="vehDist42" accel="1.041" maxSpeed="5.803" speedDev="0.000" speedFactor="4.000" vClass="bicycle">
            <param key="has.fcd.device" value="true"/>
        </vType>
        <vType id="vehDist43" accel="0.682" maxSpeed="5.891" speedDev="0.000" speedFactor="4.000" vClass="bicycle">
            <param key="has.fcd.device" value="true"/>
        </vType>
        <vType id="vehDist44" accel="0.788" maxSpeed="6.384" speedDev="0.000" speedFactor="4.000" vClass="bicycle">
            <param key="has.fcd.device" value="true"/>
        </vType>
        <vType id="vehDist45" accel="0.593" maxSpeed="6.308" speedDev="0.000" speedFactor="4.000" vClass="bicycle">
            <param key="has.fcd.device" value="true"/>
        </vType>
        <vType id="vehDist46" accel="1.004" maxSpeed="6.265" speedDev="0.000" speedFactor="4.000" vClass="bicycle">
            <param key="has.fcd.device" value="true"/>
        </vType>
        <vType id="vehDist47" accel="0.890" maxSpeed="5.916" speedDev="0.000" speedFactor="4.000" vClass="bicycle">
            <param key="has.fcd.device" value="true"/>
        </vType>
        <vType id="vehDist48" accel="0.600" maxSpeed="7.468" speedDev="0.000" speedFactor="4.000" vClass="bicycle">
            <param key="has.fcd.device" value="true"/>
        </vType>
        <vType id="vehDist49" accel="0.510" maxSpeed="6.270" speedDev="0.000" speedFactor="4.000" vClass="bicycle">
            <param key="has.fcd.device" value="true"/>
        </vType>
        <vType id="vehDist50" accel="0.782" maxSpeed="6.692" speedDev="0.000" speedFactor="4.000" vClass="bicycle">
            <param key="has.fcd.device" value="true"/>
        </vType>
        <vType id="vehDist51" accel="0.924" maxSpeed="5.601" speedDev="0.000" speedFactor="4.000" vClass="bicycle">
            <param key="has.fcd.device" value="true"/>
        </vType>
        <vType id="vehDist52" accel="0.920" maxSpeed="5.401" speedDev="0.000" speedFactor="4.000" vClass="bicycle">
            <param key="has.fcd.device" value="true"/>
        </vType>
        <vType id="vehDist53" accel="0.436" maxSpeed="6.590" speedDev="0.000" speedFactor="4.000" vClass="bicycle">
            <param key="has.fcd.device" value="true"/>
        </vType>
        <vType id="vehDist54" accel="0.453" maxSpeed="6.053" speedDev="0.000" speedFactor="4.000" vClass="bicycle">
            <param key="has.fcd.device" value="true"/>
        </vType>
        <vType id="vehDist55" accel="1.000" maxSpeed="5.929" speedDev="0.000" speedFactor="4.000" vClass="bicycle">
            <param key="has.fcd.device" value="true"/>
        </vType>
        <vType id="vehDist56" accel="0.841" maxSpeed="6.315" speedDev="0.000" speedFactor="4.000" vClass="bicycle">
            <param key="has.fcd.device" value="true"/>
        </vType>
        <vType id="vehDist57" accel="1.169" maxSpeed="6.599" speedDev="0.000" speedFactor="4.000" vClass="bicycle">
            <param key="has.fcd.device" value="true"/>
        </vType>
        <vType id="vehDist58" accel="1.205" maxSpeed="6.949" speedDev="0.000" speedFactor="4.000" vClass="bicycle">
            <param key="has.fcd.device" value="true"/>
        </vType>
        <vType id="vehDist59" accel="0.490" maxSpeed="6.622" speedDev="0.000" speedFactor="4.000" vClass="bicycle">
            <param key="has.fcd.device" value="true"/>
        </vType>
        <vType id="vehDist60" accel="0.709" maxSpeed="5.889" speedDev="0.000" speedFactor="4.000" vClass="bicycle">
            <param key="has.fcd.device" value="true"/>
        </vType>
        <vType id="vehDist61" accel="0.679" maxSpeed="6.271" speedDev="0.000" speedFactor="4.000" vClass="bicycle">
            <param key="has.fcd.device" value="true"/>
        </vType>
        <vType id="vehDist62" accel="0.855" maxSpeed="7.473" speedDev="0.000" speedFactor="4.000" vClass="bicycle">
            <param key="has.fcd.device" value="true"/>
        </vType>
        <vType id="vehDist63" accel="0.929" maxSpeed="6.396" speedDev="0.000" speedFactor="4.000" vClass="bicycle">
            <param key="has.fcd.device" value="true"/>
        </vType>
        <vType id="vehDist64" accel="0.666" maxSpeed="6.511" speedDev="0.000" speedFactor="4.000" vClass="bicycle">
            <param key="has.fcd.device" value="true"/>
        </vType>
        <vType id="vehDist65" accel="0.587" maxSpeed="6.066" speedDev="0.000" speedFactor="4.000" vClass="bicycle">
            <param key="has.fcd.device" value="true"/>
        </vType>
        <vType id="vehDist66" accel="0.744" maxSpeed="6.162" speedDev="0.000" speedFactor="4.000" vClass="bicycle">
            <param key="has.fcd.device" value="true"/>
        </vType>
        <vType id="vehDist67" accel="1.104" maxSpeed="6.836" speedDev="0.000" speedFactor="4.000" vClass="bicycle">
            <param key="has.fcd.device" value="true"/>
        </vType>
        <vType id="vehDist68" accel="1.213" maxSpeed="6.263" speedDev="0.000" speedFactor="4.000" vClass="bicycle">
            <param key="has.fcd.device" value="true"/>
        </vType>
        <vType id="vehDist69" accel="0.855" maxSpeed="5.886" speedDev="0.000" speedFactor="4.000" vClass="bicycle">
            <param key="has.fcd.device" value="true"/>
        </vType>
        <vType id="vehDist70" accel="0.603" maxSpeed="6.899" speedDev="0.000" speedFactor="4.000" vClass="bicycle">
            <param key="has.fcd.device" value="true"/>
        </vType>
        <vType id="vehDist71" accel="0.879" maxSpeed="6.086" speedDev="0.000" speedFactor="4.000" vClass="bicycle">
            <param key="has.fcd.device" value="true"/>
        </vType>
        <vType id="vehDist72" accel="1.172" maxSpeed="5.628" speedDev="0.000" speedFactor="4.000" vClass="bicycle">
            <param key="has.fcd.device" value="true"/>
        </vType>
        <vType id="vehDist73" accel="0.438" maxSpeed="6.437" speedDev="0.000" speedFactor="4.000" vClass="bicycle">
            <param key="has.fcd.device" value="true"/>
        </vType>
        <vType id="vehDist74" accel="0.968" maxSpeed="6.448" speedDev="0.000" speedFactor="4.000" vClass="bicycle">
            <param key="has.fcd.device" value="true"/>
        </vType>
        <vType id="vehDist75" accel="0.917" maxSpeed="7.452" speedDev="0.000" speedFactor="4.000" vClass="bicycle">
            <param key="has.fcd.device" value="true"/>
        </vType>
        <vType id="vehDist76" accel="0.567" maxSpeed="6.060" speedDev="0.000" speedFactor="4.000" vClass="bicycle">
            <param key="has.fcd.device" value="true"/>
        </vType>
        <vType id="vehDist77" accel="0.901" maxSpeed="6.539" speedDev="0.000" speedFactor="4.000" vClass="bicycle">
            <param key="has.fcd.device" value="true"/>
        </vType>
        <vType id="vehDist78" accel="0.511" maxSpeed="6.471" speedDev="0.000" speedFactor="4.000" vClass="bicycle">
            <param key="has.fcd.device" value="true"/>
        </vType>
        <vType id="vehDist79" accel="0.495" maxSpeed="6.593" speedDev="0.000" speedFactor="4.000" vClass="bicycle">
            <param key="has.fcd.device" value="true"/>
        </vType>
        <vType id="vehDist80" accel="1.118" maxSpeed="6.893" speedDev="0.000" speedFactor="4.000" vClass="bicycle">
            <param key="has.fcd.device" value="true"/>
        </vType>
        <vType id="vehDist81" accel="0.528" maxSpeed="5.943" speedDev="0.000" speedFactor="4.000" vClass="bicycle">
            <param key="has.fcd.device" value="true"/>
        </vType>
        <vType id="vehDist82" accel="1.064" maxSpeed="6.765" speedDev="0.000" speedFactor="4.000" vClass="bicycle">
            <param key="has.fcd.device" value="true"/>
        </vType>
        <vType id="vehDist83" accel="0.551" maxSpeed="5.947" speedDev="0.000" speedFactor="4.000" vClass="bicycle">
            <param key="has.fcd.device" value="true"/>
        </vType>
        <vType id="vehDist84" accel="0.925" maxSpeed="6.292" speedDev="0.000" speedFactor="4.000" vClass="bicycle">
            <param key="has.fcd.device" value="true"/>
        </vType>
        <vType id="vehDist85" accel="0.520" maxSpeed="6.042" speedDev="0.000" speedFactor="4.000" vClass="bicycle">
            <param key="has.fcd.device" value="true"/>
        </vType>
        <vType id="vehDist86" accel="0.849" maxSpeed="6.289" speedDev="0.000" speedFactor="4.000" vClass="bicycle">
            <param key="has.fcd.device" value="true"/>
        </vType>
        <vType id="vehDist87" accel="0.675" maxSpeed="6.220" speedDev="0.000" speedFactor="4.000" vClass="bicycle">
            <param key="has.fcd.device" value="true"/>
        </vType>
        <vType id="vehDist88" accel="0.490" maxSpeed="6.617" speedDev="0.000" speedFactor="4.000" vClass="bicycle">
            <param key="has.fcd.device" value="true"/>
        </vType>
        <vType id="vehDist89" accel="0.641" maxSpeed="5.955" speedDev="0.000" speedFactor="4.000" vClass="bicycle">
            <param key="has.fcd.device" value="true"/>
        </vType>
        <vType id="vehDist90" accel="0.616" maxSpeed="6.231" speedDev="0.000" speedFactor="4.000" vClass="bicycle">
            <param key="has.fcd.device" value="true"/>
        </vType>
        <vType id="vehDist91" accel="0.828" maxSpeed="6.268" speedDev="0.000" speedFactor="4.000" vClass="bicycle">
            <param key="has.fcd.device" value="true"/>
        </vType>
        <vType id="vehDist92" accel="0.880" maxSpeed="7.160" speedDev="0.000" speedFactor="4.000" vClass="bicycle">
            <param key="has.fcd.device" value="true"/>
        </vType>
        <vType id="vehDist93" accel="0.825" maxSpeed="6.373" speedDev="0.000" speedFactor="4.000" vClass="bicycle">
            <param key="has.fcd.device" value="true"/>
        </vType>
        <vType id="vehDist94" accel="0.700" maxSpeed="5.746" speedDev="0.000" speedFactor="4.000" vClass="bicycle">
            <param key="has.fcd.device" value="true"/>
        </vType>
        <vType id="vehDist95" accel="0.493" maxSpeed="6.415" speedDev="0.000" speedFactor="4.000" vClass="bicycle">
            <param key="has.fcd.device" value="true"/>
        </vType>
        <vType id="vehDist96" accel="0.493" maxSpeed="6.264" speedDev="0.000" speedFactor="4.000" vClass="bicycle">
            <param key="has.fcd.device" value="true"/>
        </vType>
        <vType id="vehDist97" accel="0.437" maxSpeed="7.007" speedDev="0.000" speedFactor="4.000" vClass="bicycle">
            <param key="has.fcd.device" value="true"/>
        </vType>
        <vType id="vehDist98" accel="0.612" maxSpeed="5.802" speedDev="0.000" speedFactor="4.000" vClass="bicycle">
            <param key="has.fcd.device" value="true"/>
        </vType>
        <vType id="vehDist99" accel="0.447" maxSpeed="5.757" speedDev="0.000" speedFactor="4.000" vClass="bicycle">
            <param key="has.fcd.device" value="true"/>
        </vType>
    </vTypeDistribution>
    
    
    
    
    
    
    
    
    
    
    
    
    













</additional>
