<?xml version="1.0" encoding="UTF-8"?>

<!-- generated on Do 03 Jun 2021 10:02:08 CEST by Eclipse SUMO netedit Version v1_7_0+1228-0b1a97d77e
<configuration xmlns:xsi="http://www.w3.org/2001/XMLSchema-instance" xsi:noNamespaceSchemaLocation="http://sumo.dlr.de/xsd/netconvertConfiguration.xsd">

    <input>
        <sumo-net-file value="/home/kons/GIT/sumo/mehringdamm_traci/osm.net.xml"/>
    </input>

    <output>
        <output-file value="/home/kons/GIT/sumo/mehringdamm_traci/osm.net.xml"/>
    </output>

    <processing>
        <geometry.min-radius.fix.railways value="false"/>
        <geometry.max-grade.fix value="false"/>
        <offset.disable-normalization value="true"/>
        <lefthand value="false"/>
    </processing>

    <junctions>
        <no-turnarounds value="true"/>
        <junctions.corner-detail value="5"/>
        <junctions.limit-turn-speed value="5.5"/>
        <rectangular-lane-cut value="false"/>
    </junctions>

    <pedestrian>
        <walkingareas value="false"/>
    </pedestrian>

    <netedit>
        <route-files value="/home/kons/GIT/sumo/mehringdamm_traci/routes.rou.xml"/>
    </netedit>

    <report>
        <aggregate-warnings value="5"/>
    </report>

</configuration>
-->

<routes xmlns:xsi="http://www.w3.org/2001/XMLSchema-instance" xsi:noNamespaceSchemaLocation="http://sumo.dlr.de/xsd/routes_file.xsd">
    <route edges="4068045#2 4068045#3 4068045#4 155071250#4 155071250#5 155071250#6 155071250#7 52158841#0 52158841#1 52158841#2 52158841#3 52158841#4 52158841#5 52158841#6 52158841#7" color="yellow" id="route_0"/>
</routes>
