<?xml version="1.0" encoding="UTF-8"?>

<!-- generated on 2023-01-07 23:09:46 by Eclipse SUMO netedit Version v1_15_0+1445-9ed6055add5
<configuration xmlns:xsi="http://www.w3.org/2001/XMLSchema-instance" xsi:noNamespaceSchemaLocation="http://sumo.dlr.de/xsd/netconvertConfiguration.xsd">

    <input>
        <sumo-net-file value="/mnt/simra/data-analytics/testscenarios/straight_bike/s.net.xml"/>
    </input>

    <output>
        <output-file value="/mnt/simra/data-analytics/testscenarios/straight_bike/s.net.xml"/>
    </output>

    <processing>
        <offset.disable-normalization value="true"/>
    </processing>

    <junctions>
        <no-turnarounds value="true"/>
    </junctions>

</configuration>
-->

<net version="1.9" junctionCornerDetail="5" limitTurnSpeed="5.50" xmlns:xsi="http://www.w3.org/2001/XMLSchema-instance" xsi:noNamespaceSchemaLocation="http://sumo.dlr.de/xsd/net_file.xsd">

    <location netOffset="0.00,0.00" convBoundary="-64.46,53.79,135.28,53.79" origBoundary="10000000000.00,10000000000.00,-10000000000.00,-10000000000.00" projParameter="!"/>

    <edge id="E0" from="J0" to="J1" priority="-1">
        <lane id="E0_0" index="0" speed="13.89" length="199.74" shape="-64.46,52.19 135.28,52.19"/>
    </edge>

    <junction id="J0" type="dead_end" x="-64.46" y="53.79" incLanes="" intLanes="" shape="-64.46,53.79 -64.46,50.59"/>
    <junction id="J1" type="dead_end" x="135.28" y="53.79" incLanes="E0_0" intLanes="" shape="135.28,50.59 135.28,53.79"/>

</net>
