<?xml version="1.0" encoding="UTF-8"?>

<!-- generated on 2023-01-07 23:19:02 by Eclipse SUMO netedit Version v1_15_0+1445-9ed6055add5
-->

<routes xmlns:xsi="http://www.w3.org/2001/XMLSchema-instance" xsi:noNamespaceSchemaLocation="http://sumo.dlr.de/xsd/routes_file.xsd">
    <!-- VTypes -->
    <vType id="DEFAULT_BIKETYPE" vClass="bicycle" accel="3"/>
    <!-- Vehicles, persons and containers (sorted by depart) -->
    <trip id="t_0" type="DEFAULT_BIKETYPE" depart="0.00" from="E0" to="E0"/>
</routes>
