<?xml version="1.0" encoding="UTF-8"?>

<!-- generated on Mi 02 Jun 2021 11:45:34 CEST by Eclipse SUMO netedit Version v1_7_0+1228-0b1a97d77e
<configuration xmlns:xsi="http://www.w3.org/2001/XMLSchema-instance" xsi:noNamespaceSchemaLocation="http://sumo.dlr.de/xsd/netconvertConfiguration.xsd">

    <input>
        <sumo-net-file value="/home/kons/GIT/sumo/stralauer_traci/osm.net.xml"/>
    </input>

    <output>
        <output-file value="/home/kons/GIT/sumo/stralauer_traci/osm.net.xml"/>
    </output>

    <processing>
        <geometry.min-radius.fix.railways value="false"/>
        <geometry.max-grade.fix value="false"/>
        <offset.disable-normalization value="true"/>
        <lefthand value="false"/>
    </processing>

    <junctions>
        <no-turnarounds value="true"/>
        <junctions.corner-detail value="5"/>
        <junctions.limit-turn-speed value="5.5"/>
        <rectangular-lane-cut value="false"/>
    </junctions>

    <pedestrian>
        <walkingareas value="false"/>
    </pedestrian>

    <netedit>
        <route-files value="/home/kons/GIT/sumo/stralauer_traci/routes.rou.xml"/>
    </netedit>

    <report>
        <aggregate-warnings value="5"/>
    </report>

</configuration>
-->

<net version="1.6" junctionCornerDetail="5" limitTurnSpeed="5.50" xmlns:xsi="http://www.w3.org/2001/XMLSchema-instance" xsi:noNamespaceSchemaLocation="http://sumo.dlr.de/xsd/net_file.xsd">

    <location netOffset="-394055.58,-5817625.05" convBoundary="185.50,0.00,1021.18,762.66" origBoundary="13.412831,52.490406,13.477523,52.514660" projParameter="+proj=utm +zone=33 +ellps=WGS84 +datum=WGS84 +units=m +no_defs"/>

    <type id="highway.bridleway" priority="1" numLanes="1" speed="2.78" allow="pedestrian" oneway="1" width="2.00"/>
    <type id="highway.bus_guideway" priority="1" numLanes="1" speed="27.78" allow="bus" oneway="1"/>
    <type id="highway.cycleway" priority="1" numLanes="1" speed="8.33" allow="bicycle" oneway="0" width="1.00"/>
    <type id="highway.footway" priority="1" numLanes="1" speed="2.78" allow="pedestrian" oneway="1" width="2.00"/>
    <type id="highway.ford" priority="1" numLanes="1" speed="2.78" allow="army" oneway="0"/>
    <type id="highway.living_street" priority="2" numLanes="1" speed="2.78" disallow="tram rail_urban rail rail_electric rail_fast ship" oneway="0"/>
    <type id="highway.motorway" priority="14" numLanes="2" speed="39.44" allow="private emergency authority army vip passenger hov taxi bus coach delivery truck trailer motorcycle evehicle custom1 custom2" oneway="1"/>
    <type id="highway.motorway_link" priority="9" numLanes="1" speed="22.22" allow="private emergency authority army vip passenger hov taxi bus coach delivery truck trailer motorcycle evehicle custom1 custom2" oneway="1"/>
    <type id="highway.path" priority="1" numLanes="1" speed="2.78" allow="pedestrian bicycle" oneway="0" width="2.00"/>
    <type id="highway.pedestrian" priority="1" numLanes="1" speed="2.78" allow="pedestrian" oneway="1" width="2.00"/>
    <type id="highway.primary" priority="12" numLanes="2" speed="27.78" disallow="tram rail_urban rail rail_electric rail_fast ship" oneway="0"/>
    <type id="highway.primary_link" priority="7" numLanes="1" speed="22.22" disallow="tram rail_urban rail rail_electric rail_fast ship" oneway="0"/>
    <type id="highway.raceway" priority="15" numLanes="2" speed="83.33" allow="vip" oneway="0"/>
    <type id="highway.residential" priority="3" numLanes="1" speed="13.89" disallow="tram rail_urban rail rail_electric rail_fast ship" oneway="0"/>
    <type id="highway.secondary" priority="11" numLanes="1" speed="27.78" disallow="tram rail_urban rail rail_electric rail_fast ship" oneway="0"/>
    <type id="highway.secondary_link" priority="6" numLanes="1" speed="22.22" disallow="tram rail_urban rail rail_electric rail_fast ship" oneway="0"/>
    <type id="highway.service" priority="1" numLanes="1" speed="5.56" allow="pedestrian delivery bicycle" oneway="0"/>
    <type id="highway.stairs" priority="1" numLanes="1" speed="1.39" allow="pedestrian" oneway="1" width="2.00"/>
    <type id="highway.step" priority="1" numLanes="1" speed="1.39" allow="pedestrian" oneway="1" width="2.00"/>
    <type id="highway.steps" priority="1" numLanes="1" speed="1.39" allow="pedestrian" oneway="1" width="2.00"/>
    <type id="highway.tertiary" priority="10" numLanes="1" speed="22.22" disallow="tram rail_urban rail rail_electric rail_fast ship" oneway="0"/>
    <type id="highway.tertiary_link" priority="5" numLanes="1" speed="22.22" disallow="tram rail_urban rail rail_electric rail_fast ship" oneway="0"/>
    <type id="highway.track" priority="1" numLanes="1" speed="5.56" allow="pedestrian motorcycle moped bicycle" oneway="0"/>
    <type id="highway.trunk" priority="13" numLanes="2" speed="27.78" disallow="pedestrian bicycle tram rail_urban rail rail_electric rail_fast ship" oneway="0"/>
    <type id="highway.trunk_link" priority="8" numLanes="1" speed="22.22" disallow="pedestrian bicycle tram rail_urban rail rail_electric rail_fast ship" oneway="0"/>
    <type id="highway.unclassified" priority="4" numLanes="1" speed="13.89" disallow="tram rail_urban rail rail_electric rail_fast ship" oneway="0"/>
    <type id="highway.unsurfaced" priority="1" numLanes="1" speed="8.33" disallow="tram rail_urban rail rail_electric rail_fast ship" oneway="0"/>
    <type id="railway.highspeed" priority="21" numLanes="1" speed="69.44" allow="rail_fast" oneway="1"/>
    <type id="railway.light_rail" priority="19" numLanes="1" speed="27.78" allow="rail_urban" oneway="1"/>
    <type id="railway.preserved" priority="16" numLanes="1" speed="27.78" allow="rail" oneway="1"/>
    <type id="railway.rail" priority="20" numLanes="1" speed="44.44" allow="rail" oneway="1"/>
    <type id="railway.subway" priority="18" numLanes="1" speed="27.78" allow="rail_urban" oneway="1"/>
    <type id="railway.tram" priority="17" numLanes="1" speed="13.89" allow="tram" oneway="1"/>

    <edge id=":1769472711_0" function="internal">
        <lane id=":1769472711_0_0" index="0" allow="bicycle" speed="13.89" length="0.30" width="1.00" shape="555.89,432.03 556.20,431.89"/>
        <lane id=":1769472711_0_1" index="1" disallow="bicycle tram rail_urban rail rail_electric rail_fast ship" speed="13.89" length="0.30" shape="556.75,433.94 557.05,433.81"/>
        <lane id=":1769472711_0_2" index="2" disallow="bicycle tram rail_urban rail rail_electric rail_fast ship" speed="13.89" length="0.30" shape="558.07,436.86 558.34,436.74"/>
        <lane id=":1769472711_0_3" index="3" disallow="bicycle tram rail_urban rail rail_electric rail_fast ship" speed="13.89" length="0.30" shape="559.39,439.77 559.62,439.67"/>
    </edge>
    <edge id=":20246114_0" function="internal">
        <lane id=":20246114_0_0" index="0" allow="bicycle" speed="13.89" length="0.30" width="1.00" shape="662.50,719.29 662.64,719.57"/>
        <lane id=":20246114_0_1" index="1" disallow="bicycle tram rail_urban rail rail_electric rail_fast ship" speed="13.89" length="0.30" shape="660.62,720.24 660.76,720.51"/>
        <lane id=":20246114_0_2" index="2" disallow="bicycle tram rail_urban rail rail_electric rail_fast ship" speed="13.89" length="0.30" shape="657.77,721.68 657.90,721.95"/>
    </edge>
    <edge id=":2077938176_0" function="internal">
        <lane id=":2077938176_0_0" index="0" allow="bicycle" speed="13.89" length="5.03" width="1.00" shape="332.17,576.42 327.87,579.05"/>
        <lane id=":2077938176_0_1" index="1" disallow="bicycle tram rail_urban rail rail_electric rail_fast ship" speed="13.89" length="5.03" shape="331.06,574.63 326.77,577.26"/>
        <lane id=":2077938176_0_2" index="2" disallow="bicycle tram rail_urban rail rail_electric rail_fast ship" speed="13.89" length="5.03" shape="329.38,571.91 325.11,574.53"/>
    </edge>
    <edge id=":2409969904_0" function="internal">
        <lane id=":2409969904_0_0" index="0" allow="bicycle" speed="13.89" length="0.30" width="1.00" shape="456.90,503.14 456.62,503.29"/>
        <lane id=":2409969904_0_1" index="1" disallow="bicycle tram rail_urban rail rail_electric rail_fast ship" speed="13.89" length="0.30" shape="455.92,501.28 455.65,501.43"/>
        <lane id=":2409969904_0_2" index="2" disallow="bicycle tram rail_urban rail rail_electric rail_fast ship" speed="13.89" length="0.30" shape="454.43,498.45 454.19,498.58"/>
    </edge>
    <edge id=":2467429047_0" function="internal">
        <lane id=":2467429047_0_0" index="0" allow="bicycle" speed="13.89" length="5.41" width="1.00" shape="341.05,547.91 342.38,546.90 343.30,546.22 344.26,545.59 345.67,544.69"/>
        <lane id=":2467429047_0_1" index="1" disallow="bicycle tram rail_urban rail rail_electric rail_fast ship" speed="13.89" length="5.41" shape="342.32,549.58 343.61,548.60 344.50,547.95 345.42,547.33 346.78,546.47"/>
        <lane id=":2467429047_0_2" index="2" disallow="bicycle tram rail_urban rail rail_electric rail_fast ship" speed="13.89" length="5.41" shape="344.26,552.13 345.48,551.20 346.32,550.58 347.19,550.00 348.48,549.18"/>
    </edge>
    <edge id=":2467429048_0" function="internal">
        <lane id=":2467429048_0_0" index="0" allow="bicycle" speed="13.89" length="4.75" width="1.00" shape="356.67,562.43 352.83,564.93"/>
        <lane id=":2467429048_0_1" index="1" disallow="bicycle tram rail_urban rail rail_electric rail_fast ship" speed="13.89" length="4.75" shape="355.56,560.65 351.65,563.20"/>
        <lane id=":2467429048_0_2" index="2" disallow="bicycle tram rail_urban rail rail_electric rail_fast ship" speed="13.89" length="4.75" shape="353.87,557.93 349.84,560.55"/>
        <lane id=":2467429048_0_3" index="3" disallow="bicycle tram rail_urban rail rail_electric rail_fast ship" speed="13.89" length="4.75" shape="352.17,555.22 348.04,557.91"/>
    </edge>
    <edge id=":2467429051_0" function="internal">
        <lane id=":2467429051_0_0" index="0" allow="bicycle" speed="13.89" length="4.69" width="1.00" shape="317.66,562.08 321.47,559.71"/>
        <lane id=":2467429051_0_1" index="1" disallow="bicycle tram rail_urban rail rail_electric rail_fast ship" speed="13.89" length="4.69" shape="318.72,563.89 322.63,561.46"/>
        <lane id=":2467429051_0_2" index="2" disallow="bicycle tram rail_urban rail rail_electric rail_fast ship" speed="13.89" length="4.69" shape="320.34,566.65 324.39,564.14"/>
        <lane id=":2467429051_0_3" index="3" disallow="bicycle tram rail_urban rail rail_electric rail_fast ship" speed="13.89" length="4.69" shape="321.97,569.41 326.14,566.81"/>
    </edge>
    <edge id=":2467429055_0" function="internal">
        <lane id=":2467429055_0_0" index="0" allow="bicycle" speed="13.89" length="0.27" width="1.00" shape="199.29,654.60 199.10,654.71"/>
        <lane id=":2467429055_0_1" index="1" disallow="bicycle tram rail_urban rail rail_electric rail_fast ship" speed="13.89" length="0.27" shape="198.21,652.80 197.99,652.93"/>
        <lane id=":2467429055_0_2" index="2" disallow="bicycle tram rail_urban rail rail_electric rail_fast ship" speed="13.89" length="0.27" shape="196.57,650.05 196.29,650.22"/>
    </edge>
    <edge id=":259170547_0" function="internal">
        <lane id=":259170547_0_0" index="0" allow="bicycle" speed="13.89" length="0.37" width="1.00" shape="624.69,642.74 624.89,643.15"/>
        <lane id=":259170547_0_1" index="1" disallow="bicycle tram rail_urban rail rail_electric rail_fast ship" speed="13.89" length="0.37" shape="622.82,643.69 622.99,644.04"/>
        <lane id=":259170547_0_2" index="2" disallow="bicycle tram rail_urban rail rail_electric rail_fast ship" speed="13.89" length="0.37" shape="619.96,645.14 620.09,645.39"/>
    </edge>
    <edge id=":259201667_0" function="internal">
        <lane id=":259201667_0_0" index="0" allow="bicycle" speed="13.89" length="0.14" width="1.00" shape="471.23,495.61 471.26,495.59"/>
        <lane id=":259201667_0_1" index="1" disallow="bicycle tram rail_urban rail rail_electric rail_fast ship" speed="13.89" length="0.14" shape="470.37,493.69 470.28,493.73"/>
        <lane id=":259201667_0_2" index="2" disallow="bicycle tram rail_urban rail rail_electric rail_fast ship" speed="13.89" length="0.14" shape="469.06,490.77 468.79,490.90"/>
    </edge>
    <edge id=":259201790_0" function="internal">
        <lane id=":259201790_0_0" index="0" allow="bicycle" speed="13.89" length="0.72" width="1.00" shape="541.80,522.29 541.58,521.86"/>
        <lane id=":259201790_0_1" index="1" disallow="bicycle tram rail_urban rail rail_electric rail_fast ship" speed="13.89" length="0.72" shape="543.68,521.35 543.41,520.84"/>
        <lane id=":259201790_0_2" index="2" disallow="bicycle tram rail_urban rail rail_electric rail_fast ship" speed="13.89" length="0.72" shape="546.54,519.92 546.21,519.29"/>
        <lane id=":259201790_0_3" index="3" disallow="bicycle tram rail_urban rail rail_electric rail_fast ship" speed="13.89" length="0.72" shape="549.40,518.48 549.01,517.73"/>
        <lane id=":259201790_0_4" index="4" disallow="bicycle tram rail_urban rail rail_electric rail_fast ship" speed="13.89" length="0.72" shape="552.26,517.05 551.81,516.18"/>
    </edge>
    <edge id=":262692999_0" function="internal">
        <lane id=":262692999_0_0" index="0" allow="bicycle" speed="13.89" length="11.24" width="1.00" shape="591.66,577.23 596.61,587.32"/>
    </edge>
    <edge id=":262692999_1" function="internal">
        <lane id=":262692999_1_0" index="0" allow="bicycle" speed="7.86" length="14.33" width="1.00" shape="591.66,577.23 592.96,581.16 592.80,584.49 591.20,587.21 588.16,589.33"/>
    </edge>
    <edge id=":262692999_2" function="internal">
        <lane id=":262692999_2_0" index="0" disallow="bicycle tram rail_urban rail rail_electric rail_fast ship" speed="13.89" length="11.32" shape="589.76,578.14 594.74,588.27"/>
        <lane id=":262692999_2_1" index="1" disallow="bicycle tram rail_urban rail rail_electric rail_fast ship" speed="13.89" length="11.32" shape="586.88,579.51 591.89,589.71"/>
    </edge>
    <edge id=":262692999_4" function="internal">
        <lane id=":262692999_4_0" index="0" allow="pedestrian delivery" speed="6.39" length="8.65" shape="586.88,579.51 588.08,582.48 588.54,584.79 588.26,586.44 587.24,587.43"/>
    </edge>
    <edge id=":262692999_5" function="internal">
        <lane id=":262692999_5_0" index="0" allow="bicycle" speed="7.86" length="14.17" width="1.00" shape="585.04,582.62 588.53,581.57 591.63,582.01 594.32,583.93 596.61,587.32"/>
    </edge>
    <edge id=":262692999_6" function="internal">
        <lane id=":262692999_6_0" index="0" allow="pedestrian delivery" speed="6.40" length="8.57" shape="585.95,584.51 587.31,584.35 588.76,585.17 590.28,586.96 591.89,589.71"/>
    </edge>
    <edge id=":262692999_7" function="internal">
        <lane id=":262692999_7_0" index="0" allow="pedestrian delivery" speed="3.65" length="4.68" shape="585.95,584.51 587.37,584.75 588.06,585.32 588.02,586.22 587.24,587.43"/>
    </edge>
    <edge id=":262693008_0" function="internal">
        <lane id=":262693008_0_0" index="0" allow="bicycle" speed="13.89" length="0.28" width="1.00" shape="642.17,734.61 642.06,734.38"/>
        <lane id=":262693008_0_1" index="1" disallow="bicycle tram rail_urban rail rail_electric rail_fast ship" speed="13.89" length="0.28" shape="644.08,733.73 643.96,733.48"/>
        <lane id=":262693008_0_2" index="2" disallow="bicycle tram rail_urban rail rail_electric rail_fast ship" speed="13.89" length="0.28" shape="646.99,732.40 646.85,732.12"/>
    </edge>
    <edge id=":262693009_0" function="internal">
        <lane id=":262693009_0_0" index="0" allow="bicycle" speed="13.89" length="0.49" width="1.00" shape="619.79,687.58 619.69,687.37 619.63,687.23 619.57,687.08 619.49,686.87"/>
        <lane id=":262693009_0_1" index="1" disallow="bicycle tram rail_urban rail rail_electric rail_fast ship" speed="13.89" length="0.49" shape="621.68,686.67 621.61,686.53 621.57,686.43 621.53,686.32 621.48,686.18"/>
        <lane id=":262693009_0_2" index="2" disallow="bicycle tram rail_urban rail rail_electric rail_fast ship" speed="13.89" length="0.49" shape="624.57,685.29 624.54,685.24 624.53,685.20 624.52,685.17 624.50,685.12"/>
    </edge>
    <edge id=":29785147_0" function="internal">
        <lane id=":29785147_0_0" index="0" allow="bicycle" speed="13.89" length="12.01" width="1.00" shape="348.75,567.72 345.69,569.50 343.40,570.37 341.08,571.20 337.93,572.86"/>
    </edge>
    <edge id=":29785147_1" function="internal">
        <lane id=":29785147_1_0" index="0" allow="bicycle" speed="8.27" length="16.79" width="1.00" shape="348.75,567.72 344.75,569.61 341.09,569.60 337.76,567.68 334.78,563.85"/>
    </edge>
    <edge id=":29785147_2" function="internal">
        <lane id=":29785147_2_0" index="0" disallow="bicycle tram rail_urban rail rail_electric rail_fast ship" speed="13.89" length="11.84" shape="347.57,565.98 344.53,567.75 342.25,568.61 339.95,569.43 336.83,571.07"/>
        <lane id=":29785147_2_1" index="1" disallow="bicycle tram rail_urban rail rail_electric rail_fast ship" speed="13.89" length="11.84" shape="345.76,563.34 342.76,565.09 340.51,565.93 338.23,566.73 335.15,568.35"/>
    </edge>
    <edge id=":29785147_4" function="internal">
        <lane id=":29785147_4_0" index="0" disallow="bicycle tram rail_urban rail rail_electric rail_fast ship" speed="6.11" length="8.25" shape="343.96,560.70 341.20,562.40 339.05,563.31 337.52,563.44 336.59,562.78"/>
    </edge>
    <edge id=":29785147_5" function="internal">
        <lane id=":29785147_5_0" index="0" allow="bicycle" speed="8.07" length="14.94" width="1.00" shape="341.16,560.10 342.70,563.86 342.68,567.24 341.09,570.24 337.93,572.86"/>
    </edge>
    <edge id=":29785147_6" function="internal">
        <lane id=":29785147_6_0" index="0" disallow="bicycle tram rail_urban rail rail_electric rail_fast ship" speed="7.35" length="11.60" shape="339.35,561.16 340.54,564.08 340.52,566.70 339.28,569.03 336.83,571.07"/>
    </edge>
    <edge id=":29785147_7" function="internal">
        <lane id=":29785147_7_0" index="0" disallow="bicycle tram rail_urban rail rail_electric rail_fast ship" speed="6.62" length="9.22" shape="339.35,561.16 339.83,562.87 339.29,564.64 337.73,566.47 335.15,568.35"/>
    </edge>
    <edge id=":29785147_8" function="internal">
        <lane id=":29785147_8_0" index="0" disallow="bicycle tram rail_urban rail rail_electric rail_fast ship" speed="3.65" length="4.67" shape="339.35,561.16 339.27,562.60 338.78,563.35 337.89,563.41 336.59,562.78"/>
    </edge>
    <edge id=":29785476_0" function="internal">
        <lane id=":29785476_0_0" index="0" allow="bicycle" speed="13.89" length="0.35" width="1.00" shape="865.62,311.00 865.40,311.12"/>
        <lane id=":29785476_0_1" index="1" disallow="bicycle tram rail_urban rail rail_electric rail_fast ship" speed="13.89" length="0.35" shape="864.73,309.10 864.47,309.24"/>
        <lane id=":29785476_0_2" index="2" disallow="bicycle tram rail_urban rail rail_electric rail_fast ship" speed="13.89" length="0.35" shape="863.39,306.19 863.04,306.37"/>
        <lane id=":29785476_0_3" index="3" disallow="bicycle tram rail_urban rail rail_electric rail_fast ship" speed="13.89" length="0.35" shape="862.04,303.29 861.62,303.50"/>
    </edge>
    <edge id=":29785478_0" function="internal">
        <lane id=":29785478_0_0" index="0" allow="bicycle" speed="13.89" length="8.51" width="1.00" shape="592.34,440.94 590.28,442.19 589.06,443.37 587.85,444.56 585.79,445.81"/>
        <lane id=":29785478_0_1" index="1" disallow="bicycle tram rail_urban rail rail_electric rail_fast ship" speed="13.89" length="8.51" shape="591.44,439.04 589.17,439.84 587.48,440.03 585.80,440.22 583.52,441.01"/>
        <lane id=":29785478_0_2" index="2" disallow="bicycle tram rail_urban rail rail_electric rail_fast ship" speed="13.89" length="8.51" shape="590.07,436.15 588.08,437.92 587.48,440.03 586.89,442.13 584.89,443.91"/>
        <lane id=":29785478_0_3" index="3" disallow="bicycle tram rail_urban rail rail_electric rail_fast ship" speed="13.89" length="8.51" shape="590.07,436.15 587.80,436.95 586.11,437.13 584.43,437.32 582.16,438.12"/>
        <lane id=":29785478_0_4" index="4" disallow="bicycle tram rail_urban rail rail_electric rail_fast ship" speed="13.89" length="8.51" shape="588.71,433.26 586.43,434.05 584.75,434.24 583.06,434.43 580.79,435.23"/>
    </edge>
    <edge id=":29785480_0" function="internal">
        <lane id=":29785480_0_0" index="0" allow="bicycle" speed="13.89" length="0.29" width="1.00" shape="688.75,395.43 688.51,395.54"/>
        <lane id=":29785480_0_1" index="1" disallow="bicycle tram rail_urban rail rail_electric rail_fast ship" speed="13.89" length="0.29" shape="687.87,393.53 687.62,393.65"/>
        <lane id=":29785480_0_2" index="2" disallow="bicycle tram rail_urban rail rail_electric rail_fast ship" speed="13.89" length="0.29" shape="686.52,390.62 686.25,390.75"/>
        <lane id=":29785480_0_3" index="3" disallow="bicycle tram rail_urban rail rail_electric rail_fast ship" speed="13.89" length="0.29" shape="685.18,387.72 684.89,387.86"/>
    </edge>
    <edge id=":29787467_0" function="internal">
        <lane id=":29787467_0_0" index="0" allow="bicycle" speed="13.89" length="0.28" width="1.00" shape="410.45,335.22 410.29,335.02"/>
        <lane id=":29787467_0_1" index="1" disallow="bicycle tram rail_urban rail rail_electric rail_fast ship" speed="13.89" length="0.28" shape="412.12,333.94 411.94,333.72"/>
    </edge>
    <edge id=":29787468_0" function="internal">
        <lane id=":29787468_0_0" index="0" allow="bicycle" speed="13.89" length="8.32" width="1.00" shape="486.34,408.50 488.28,410.09 490.09,410.63 491.86,411.21 493.64,412.93"/>
        <lane id=":29787468_0_1" index="1" disallow="bicycle tram rail_urban rail rail_electric rail_fast ship" speed="13.89" length="8.32" shape="484.71,409.82 486.62,411.38 488.41,411.89 490.16,412.44 491.91,414.11"/>
        <lane id=":29787468_0_2" index="2" disallow="bicycle tram rail_urban rail rail_electric rail_fast ship" speed="13.89" length="8.32" shape="484.71,409.82 489.27,415.92"/>
        <lane id=":29787468_0_3" index="3" disallow="bicycle tram rail_urban rail rail_electric rail_fast ship" speed="13.89" length="8.32" shape="484.71,409.82 485.77,411.92 485.77,413.70 485.72,415.52 486.63,417.73"/>
    </edge>
    <edge id=":3423562991_0" function="internal">
        <lane id=":3423562991_0_0" index="0" allow="bicycle" speed="13.89" length="4.07" width="1.00" shape="759.71,339.40 763.21,337.67"/>
        <lane id=":3423562991_0_1" index="1" disallow="bicycle tram rail_urban rail rail_electric rail_fast ship" speed="13.89" length="4.07" shape="760.60,341.30 764.18,339.53"/>
        <lane id=":3423562991_0_2" index="2" disallow="bicycle tram rail_urban rail rail_electric rail_fast ship" speed="13.89" length="4.07" shape="761.95,344.20 765.65,342.37"/>
        <lane id=":3423562991_0_3" index="3" disallow="bicycle tram rail_urban rail rail_electric rail_fast ship" speed="13.89" length="4.07" shape="763.30,347.10 767.12,345.21"/>
    </edge>
    <edge id=":3423563315_0" function="internal">
        <lane id=":3423563315_0_0" index="0" allow="bicycle" speed="13.89" length="5.19" width="1.00" shape="787.44,325.32 792.15,323.01"/>
        <lane id=":3423563315_0_1" index="1" disallow="bicycle tram rail_urban rail rail_electric rail_fast ship" speed="13.89" length="5.19" shape="788.37,327.20 793.06,324.90"/>
        <lane id=":3423563315_0_2" index="2" disallow="bicycle tram rail_urban rail rail_electric rail_fast ship" speed="13.89" length="5.19" shape="789.80,330.06 794.45,327.79"/>
        <lane id=":3423563315_0_3" index="3" disallow="bicycle tram rail_urban rail rail_electric rail_fast ship" speed="13.89" length="5.19" shape="791.23,332.92 795.84,330.67"/>
    </edge>
    <edge id=":3423563317_0" function="internal">
        <lane id=":3423563317_0_0" index="0" allow="bicycle" speed="13.89" length="0.30" width="1.00" shape="804.09,341.61 803.84,341.74"/>
        <lane id=":3423563317_0_1" index="1" disallow="bicycle tram rail_urban rail rail_electric rail_fast ship" speed="13.89" length="0.30" shape="803.16,339.73 802.90,339.86"/>
        <lane id=":3423563317_0_2" index="2" disallow="bicycle tram rail_urban rail rail_electric rail_fast ship" speed="13.89" length="0.30" shape="801.73,336.87 801.46,337.00"/>
        <lane id=":3423563317_0_3" index="3" disallow="bicycle tram rail_urban rail rail_electric rail_fast ship" speed="13.89" length="0.30" shape="800.31,334.00 800.03,334.14"/>
    </edge>
    <edge id=":3423563318_0" function="internal">
        <lane id=":3423563318_0_0" index="0" allow="bicycle" speed="13.89" length="5.04" width="1.00" shape="801.72,342.80 797.18,345.05"/>
        <lane id=":3423563318_0_1" index="1" disallow="bicycle tram rail_urban rail rail_electric rail_fast ship" speed="13.89" length="5.04" shape="800.78,340.92 796.25,343.17"/>
        <lane id=":3423563318_0_2" index="2" disallow="bicycle tram rail_urban rail rail_electric rail_fast ship" speed="13.89" length="5.04" shape="799.35,338.06 794.84,340.30"/>
        <lane id=":3423563318_0_3" index="3" disallow="bicycle tram rail_urban rail rail_electric rail_fast ship" speed="13.89" length="5.04" shape="797.91,335.20 793.42,337.43"/>
    </edge>
    <edge id=":3423563393_0" function="internal">
        <lane id=":3423563393_0_0" index="0" allow="bicycle" speed="13.89" length="0.38" width="1.00" shape="759.88,339.31 759.53,339.48"/>
        <lane id=":3423563393_0_1" index="1" disallow="bicycle tram rail_urban rail rail_electric rail_fast ship" speed="13.89" length="0.38" shape="760.76,341.22 760.42,341.38"/>
        <lane id=":3423563393_0_2" index="2" disallow="bicycle tram rail_urban rail rail_electric rail_fast ship" speed="13.89" length="0.38" shape="762.10,344.13 761.77,344.28"/>
        <lane id=":3423563393_0_3" index="3" disallow="bicycle tram rail_urban rail rail_electric rail_fast ship" speed="13.89" length="0.38" shape="763.44,347.03 763.12,347.18"/>
    </edge>
    <edge id=":3423563401_0" function="internal">
        <lane id=":3423563401_0_0" index="0" allow="bicycle" speed="13.89" length="4.98" width="1.00" shape="772.46,356.73 767.96,358.80"/>
        <lane id=":3423563401_0_1" index="1" disallow="bicycle tram rail_urban rail rail_electric rail_fast ship" speed="13.89" length="4.98" shape="771.59,354.82 767.07,356.89"/>
        <lane id=":3423563401_0_2" index="2" disallow="bicycle tram rail_urban rail rail_electric rail_fast ship" speed="13.89" length="4.98" shape="770.26,351.91 765.73,353.99"/>
        <lane id=":3423563401_0_3" index="3" disallow="bicycle tram rail_urban rail rail_electric rail_fast ship" speed="13.89" length="4.98" shape="768.92,349.00 764.39,351.09"/>
    </edge>
    <edge id=":343647074_0" function="internal">
        <lane id=":343647074_0_0" index="0" allow="bicycle" speed="13.89" length="0.15" width="1.00" shape="272.62,610.80 272.62,610.80"/>
        <lane id=":343647074_0_1" index="1" disallow="bicycle tram rail_urban rail rail_electric rail_fast ship" speed="13.89" length="0.15" shape="271.66,608.93 271.54,608.99"/>
        <lane id=":343647074_0_2" index="2" disallow="bicycle tram rail_urban rail rail_electric rail_fast ship" speed="13.89" length="0.15" shape="270.18,606.09 269.90,606.25"/>
    </edge>
    <edge id=":3517797377_0" function="internal">
        <lane id=":3517797377_0_0" index="0" allow="bicycle" speed="13.89" length="0.30" width="1.00" shape="434.84,514.53 434.57,514.66"/>
        <lane id=":3517797377_0_1" index="1" disallow="bicycle tram rail_urban rail rail_electric rail_fast ship" speed="13.89" length="0.30" shape="433.88,512.66 433.61,512.80"/>
        <lane id=":3517797377_0_2" index="2" disallow="bicycle tram rail_urban rail rail_electric rail_fast ship" speed="13.89" length="0.30" shape="432.41,509.81 432.14,509.95"/>
    </edge>
    <edge id=":3517797383_0" function="internal">
        <lane id=":3517797383_0_0" index="0" allow="bicycle" speed="13.89" length="0.29" width="1.00" shape="362.78,533.96 363.07,533.77"/>
        <lane id=":3517797383_0_1" index="1" disallow="bicycle tram rail_urban rail rail_electric rail_fast ship" speed="13.89" length="0.29" shape="363.90,535.74 364.15,535.58"/>
        <lane id=":3517797383_0_2" index="2" disallow="bicycle tram rail_urban rail rail_electric rail_fast ship" speed="13.89" length="0.29" shape="365.60,538.45 365.79,538.33"/>
    </edge>
    <edge id=":3517808667_0" function="internal">
        <lane id=":3517808667_0_0" index="0" allow="bicycle" speed="13.89" length="0.30" width="1.00" shape="644.12,738.88 644.00,738.60"/>
        <lane id=":3517808667_0_1" index="1" disallow="bicycle tram rail_urban rail rail_electric rail_fast ship" speed="13.89" length="0.30" shape="646.03,738.00 645.91,737.73"/>
        <lane id=":3517808667_0_2" index="2" disallow="bicycle tram rail_urban rail rail_electric rail_fast ship" speed="13.89" length="0.30" shape="648.94,736.67 648.82,736.40"/>
    </edge>
    <edge id=":385246995_0" function="internal">
        <lane id=":385246995_0_0" index="0" allow="bicycle" speed="8.26" length="14.46" width="1.00" shape="334.68,563.67 333.17,560.05 333.07,556.71 334.39,553.67 337.11,550.91"/>
    </edge>
    <edge id=":385246995_1" function="internal">
        <lane id=":385246995_1_0" index="0" disallow="bicycle tram rail_urban rail rail_electric rail_fast ship" speed="6.83" length="9.15" shape="336.49,562.61 336.03,560.96 336.52,559.16 337.95,557.22 340.32,555.12"/>
    </edge>
    <edge id=":385246995_2" function="internal">
        <lane id=":385246995_2_0" index="0" disallow="bicycle tram rail_urban rail rail_electric rail_fast ship" speed="3.65" length="4.67" shape="336.49,562.61 336.57,561.17 337.06,560.42 337.95,560.36 339.25,560.99"/>
    </edge>
    <edge id=":385246995_3" function="internal">