<?xml version="1.0" encoding="UTF-8"?>

<!-- generated on Fr 02 Jul 2021 11:19:22 CEST by Eclipse SUMO netedit Version v1_7_0+1228-0b1a97d77e
<configuration xmlns:xsi="http://www.w3.org/2001/XMLSchema-instance" xsi:noNamespaceSchemaLocation="http://sumo.dlr.de/xsd/netconvertConfiguration.xsd">

    <input>
        <sumo-net-file value="/home/kons/GIT/sumo/alex_traci/alex_2_blunt.net.xml"/>
    </input>

    <output>
        <output-file value="/home/kons/GIT/sumo/alex_traci/alex_2_blunt.net.xml"/>
    </output>

    <processing>
        <geometry.min-radius.fix.railways value="false"/>
        <geometry.max-grade.fix value="false"/>
        <offset.disable-normalization value="true"/>
        <lefthand value="false"/>
    </processing>

    <junctions>
        <no-turnarounds value="true"/>
        <junctions.corner-detail value="5"/>
        <junctions.limit-turn-speed value="5.5"/>
        <rectangular-lane-cut value="false"/>
    </junctions>

    <pedestrian>
        <walkingareas value="false"/>
    </pedestrian>

    <netedit>
        <route-files value="/home/kons/GIT/sumo/alex_traci/bike_routes.rou.xml"/>
    </netedit>

    <report>
        <aggregate-warnings value="5"/>
    </report>

</configuration>
-->

<routes xmlns:xsi="http://www.w3.org/2001/XMLSchema-instance" xsi:noNamespaceSchemaLocation="http://sumo.dlr.de/xsd/routes_file.xsd">
    <route edges="24540242#1 188044903#0 188044903#1 47016365#1 301241483#0 301241483#1 301241483#2 301241483#3 728838409#0" color="yellow" id="route_0"/>
    <route edges="24540242#1 188044903#0 188044903#1 19801618#1 19801618#2 19801618#3 19801618#4" color="yellow" id="route_1"/>
</routes>
