<configuration>
    <input>    
        <net-file value="B1.net.xml"/>
        <route-files value="B1_new_params.trips.xml"/>
    </input>
    <time>
        <begin value="0"/>
        <end value="20000"/>
    </time>
    <tls.actuated.show-detectors value="true"/>
</configuration>
