<?xml version="1.0" encoding="UTF-8"?>

<!-- generated on Fri Mar  5 11:36:19 2021 by Eclipse SUMO duarouter Version v1_7_0+1228-0b1a97d77e
<configuration xmlns:xsi="http://www.w3.org/2001/XMLSchema-instance" xsi:noNamespaceSchemaLocation="http://sumo.dlr.de/xsd/duarouterConfiguration.xsd">

    <input>
        <net-file value="b1_exp.net.xml"/>
        <route-files value="b1.trips.xml"/>
    </input>

    <output>
        <output-file value="b1.trips.xml.tmp"/>
        <write-trips value="true"/>
    </output>

    <time>
        <begin value="0"/>
        <end value="9998"/>
    </time>

    <report>
        <no-warnings value="true"/>
        <ignore-errors value="true"/>
        <no-step-log value="true"/>
    </report>

</configuration>
-->

<routes xmlns:xsi="http://www.w3.org/2001/XMLSchema-instance" xsi:noNamespaceSchemaLocation="http://sumo.dlr.de/xsd/routes_file.xsd"> 
    
     <vTypeDistribution id="vehDist">
        <vType id="vehDist0" accel="1.210" maxSpeed="7.063" decel="1.199" speedDev="0.000" speedFactor="4.000" vClass="bicycle">
            <param key="has.fcd.device" value="true"/>
        </vType>
        <vType id="vehDist1" accel="0.765" maxSpeed="7.356" decel="0.664" speedDev="0.000" speedFactor="4.000" vClass="bicycle">
            <param key="has.fcd.device" value="true"/>
        </vType>
        <vType id="vehDist2" accel="0.786" maxSpeed="6.487" decel="1.055" speedDev="0.000" speedFactor="4.000" vClass="bicycle">
            <param key="has.fcd.device" value="true"/>
        </vType>
        <vType id="vehDist3" accel="1.007" maxSpeed="6.190" decel="1.199" speedDev="0.000" speedFactor="4.000" vClass="bicycle">
            <param key="has.fcd.device" value="true"/>
        </vType>
        <vType id="vehDist4" accel="0.921" maxSpeed="7.877" decel="1.103" speedDev="0.000" speedFactor="4.000" vClass="bicycle">
            <param key="has.fcd.device" value="true"/>
        </vType>
        <vType id="vehDist5" accel="0.821" maxSpeed="7.056" decel="1.113" speedDev="0.000" speedFactor="4.000" vClass="bicycle">
            <param key="has.fcd.device" value="true"/>
        </vType>
        <vType id="vehDist6" accel="1.040" maxSpeed="6.457" decel="1.048" speedDev="0.000" speedFactor="4.000" vClass="bicycle">
            <param key="has.fcd.device" value="true"/>
        </vType>
        <vType id="vehDist7" accel="0.834" maxSpeed="6.409" decel="0.701" speedDev="0.000" speedFactor="4.000" vClass="bicycle">
            <param key="has.fcd.device" value="true"/>
        </vType>
        <vType id="vehDist8" accel="1.220" maxSpeed="8.578" decel="0.690" speedDev="0.000" speedFactor="4.000" vClass="bicycle">
            <param key="has.fcd.device" value="true"/>
        </vType>
        <vType id="vehDist9" accel="0.849" maxSpeed="7.385" decel="0.929" speedDev="0.000" speedFactor="4.000" vClass="bicycle">
            <param key="has.fcd.device" value="true"/>
        </vType>
        <vType id="vehDist10" accel="1.059" maxSpeed="5.927" decel="1.013" speedDev="0.000" speedFactor="4.000" vClass="bicycle">
            <param key="has.fcd.device" value="true"/>
        </vType>
        <vType id="vehDist11" accel="1.034" maxSpeed="8.329" decel="0.974" speedDev="0.000" speedFactor="4.000" vClass="bicycle">
            <param key="has.fcd.device" value="true"/>
        </vType>
        <vType id="vehDist12" accel="1.052" maxSpeed="5.686" decel="1.012" speedDev="0.000" speedFactor="4.000" vClass="bicycle">
            <param key="has.fcd.device" value="true"/>
        </vType>
        <vType id="vehDist13" accel="0.779" maxSpeed="6.144" decel="0.859" speedDev="0.000" speedFactor="4.000" vClass="bicycle">
            <param key="has.fcd.device" value="true"/>
        </vType>
        <vType id="vehDist14" accel="1.019" maxSpeed="7.387" decel="0.894" speedDev="0.000" speedFactor="4.000" vClass="bicycle">
            <param key="has.fcd.device" value="true"/>
        </vType>
        <vType id="vehDist15" accel="0.714" maxSpeed="8.342" decel="1.346" speedDev="0.000" speedFactor="4.000" vClass="bicycle">
            <param key="has.fcd.device" value="true"/>
        </vType>
        <vType id="vehDist16" accel="0.780" maxSpeed="7.050" decel="0.940" speedDev="0.000" speedFactor="4.000" vClass="bicycle">
            <param key="has.fcd.device" value="true"/>
        </vType>
        <vType id="vehDist17" accel="1.095" maxSpeed="5.905" decel="0.887" speedDev="0.000" speedFactor="4.000" vClass="bicycle">
            <param key="has.fcd.device" value="true"/>
        </vType>
        <vType id="vehDist18" accel="0.994" maxSpeed="7.644" decel="0.598" speedDev="0.000" speedFactor="4.000" vClass="bicycle">
            <param key="has.fcd.device" value="true"/>
        </vType>
        <vType id="vehDist19" accel="1.062" maxSpeed="7.110" decel="0.638" speedDev="0.000" speedFactor="4.000" vClass="bicycle">
            <param key="has.fcd.device" value="true"/>
        </vType>
        <vType id="vehDist20" accel="1.106" maxSpeed="6.645" decel="1.014" speedDev="0.000" speedFactor="4.000" vClass="bicycle">
            <param key="has.fcd.device" value="true"/>
        </vType>
        <vType id="vehDist21" accel="0.912" maxSpeed="5.918" decel="0.788" speedDev="0.000" speedFactor="4.000" vClass="bicycle">
            <param key="has.fcd.device" value="true"/>
        </vType>
        <vType id="vehDist22" accel="0.998" maxSpeed="6.367" decel="0.769" speedDev="0.000" speedFactor="4.000" vClass="bicycle">
            <param key="has.fcd.device" value="true"/>
        </vType>
        <vType id="vehDist23" accel="1.246" maxSpeed="7.676" decel="0.874" speedDev="0.000" speedFactor="4.000" vClass="bicycle">
            <param key="has.fcd.device" value="true"/>
        </vType>
        <vType id="vehDist24" accel="0.918" maxSpeed="7.604" decel="1.193" speedDev="0.000" speedFactor="4.000" vClass="bicycle">
            <param key="has.fcd.device" value="true"/>
        </vType>
        <vType id="vehDist25" accel="1.006" maxSpeed="8.277" decel="0.626" speedDev="0.000" speedFactor="4.000" vClass="bicycle">
            <param key="has.fcd.device" value="true"/>
        </vType>
        <vType id="vehDist26" accel="0.999" maxSpeed="6.935" decel="0.785" speedDev="0.000" speedFactor="4.000" vClass="bicycle">
            <param key="has.fcd.device" value="true"/>
        </vType>
        <vType id="vehDist27" accel="1.210" maxSpeed="6.496" decel="0.909" speedDev="0.000" speedFactor="4.000" vClass="bicycle">
            <param key="has.fcd.device" value="true"/>
        </vType>
        <vType id="vehDist28" accel="0.646" maxSpeed="5.878" decel="0.852" speedDev="0.000" speedFactor="4.000" vClass="bicycle">
            <param key="has.fcd.device" value="true"/>
        </vType>
        <vType id="vehDist29" accel="1.030" maxSpeed="6.693" decel="0.872" speedDev="0.000" speedFactor="4.000" vClass="bicycle">
            <param key="has.fcd.device" value="true"/>
        </vType>
        <vType id="vehDist30" accel="0.838" maxSpeed="7.229" decel="0.578" speedDev="0.000" speedFactor="4.000" vClass="bicycle">
            <param key="has.fcd.device" value="true"/>
        </vType>
        <vType id="vehDist31" accel="0.853" maxSpeed="8.041" decel="0.931" speedDev="0.000" speedFactor="4.000" vClass="bicycle">
            <param key="has.fcd.device" value="true"/>
        </vType>
        <vType id="vehDist32" accel="1.020" maxSpeed="7.935" decel="0.904" speedDev="0.000" speedFactor="4.000" vClass="bicycle">
            <param key="has.fcd.device" value="true"/>
        </vType>
        <vType id="vehDist33" accel="1.185" maxSpeed="6.015" decel="0.510" speedDev="0.000" speedFactor="4.000" vClass="bicycle">
            <param key="has.fcd.device" value="true"/>
        </vType>
        <vType id="vehDist34" accel="1.228" maxSpeed="6.209" decel="0.875" speedDev="0.000" speedFactor="4.000" vClass="bicycle">
            <param key="has.fcd.device" value="true"/>
        </vType>
        <vType id="vehDist35" accel="0.915" maxSpeed="8.505" decel="0.731" speedDev="0.000" speedFactor="4.000" vClass="bicycle">
            <param key="has.fcd.device" value="true"/>
        </vType>
        <vType id="vehDist36" accel="1.091" maxSpeed="6.638" decel="1.300" speedDev="0.000" speedFactor="4.000" vClass="bicycle">
            <param key="has.fcd.device" value="true"/>
        </vType>
        <vType id="vehDist37" accel="1.162" maxSpeed="7.337" decel="0.502" speedDev="0.000" speedFactor="4.000" vClass="bicycle">
            <param key="has.fcd.device" value="true"/>
        </vType>
        <vType id="vehDist38" accel="0.671" maxSpeed="7.364" decel="0.787" speedDev="0.000" speedFactor="4.000" vClass="bicycle">
            <param key="has.fcd.device" value="true"/>
        </vType>
        <vType id="vehDist39" accel="0.845" maxSpeed="8.378" decel="0.908" speedDev="0.000" speedFactor="4.000" vClass="bicycle">
            <param key="has.fcd.device" value="true"/>
        </vType>
        <vType id="vehDist40" accel="1.038" maxSpeed="7.748" decel="0.931" speedDev="0.000" speedFactor="4.000" vClass="bicycle">
            <param key="has.fcd.device" value="true"/>
        </vType>
        <vType id="vehDist41" accel="1.367" maxSpeed="7.204" decel="0.853" speedDev="0.000" speedFactor="4.000" vClass="bicycle">
            <param key="has.fcd.device" value="true"/>
        </vType>
        <vType id="vehDist42" accel="0.748" maxSpeed="5.834" decel="0.717" speedDev="0.000" speedFactor="4.000" vClass="bicycle">
            <param key="has.fcd.device" value="true"/>
        </vType>
        <vType id="vehDist43" accel="1.101" maxSpeed="6.892" decel="1.132" speedDev="0.000" speedFactor="4.000" vClass="bicycle">
            <param key="has.fcd.device" value="true"/>
        </vType>
        <vType id="vehDist44" accel="1.198" maxSpeed="6.216" decel="0.717" speedDev="0.000" speedFactor="4.000" vClass="bicycle">
            <param key="has.fcd.device" value="true"/>
        </vType>
        <vType id="vehDist45" accel="0.787" maxSpeed="7.562" decel="0.753" speedDev="0.000" speedFactor="4.000" vClass="bicycle">
            <param key="has.fcd.device" value="true"/>
        </vType>
        <vType id="vehDist46" accel="1.027" maxSpeed="6.418" decel="0.829" speedDev="0.000" speedFactor="4.000" vClass="bicycle">
            <param key="has.fcd.device" value="true"/>
        </vType>
        <vType id="vehDist47" accel="1.132" maxSpeed="6.669" decel="1.187" speedDev="0.000" speedFactor="4.000" vClass="bicycle">
            <param key="has.fcd.device" value="true"/>
        </vType>
        <vType id="vehDist48" accel="1.027" maxSpeed="6.769" decel="0.627" speedDev="0.000" speedFactor="4.000" vClass="bicycle">
            <param key="has.fcd.device" value="true"/>
        </vType>
        <vType id="vehDist49" accel="0.615" maxSpeed="6.073" decel="0.777" speedDev="0.000" speedFactor="4.000" vClass="bicycle">
            <param key="has.fcd.device" value="true"/>
        </vType>
        <vType id="vehDist50" accel="0.941" maxSpeed="7.255" decel="1.110" speedDev="0.000" speedFactor="4.000" vClass="bicycle">
            <param key="has.fcd.device" value="true"/>
        </vType>
        <vType id="vehDist51" accel="0.821" maxSpeed="5.693" decel="0.829" speedDev="0.000" speedFactor="4.000" vClass="bicycle">
            <param key="has.fcd.device" value="true"/>
        </vType>
        <vType id="vehDist52" accel="1.055" maxSpeed="6.416" decel="0.981" speedDev="0.000" speedFactor="4.000" vClass="bicycle">
            <param key="has.fcd.device" value="true"/>
        </vType>
        <vType id="vehDist53" accel="0.830" maxSpeed="6.232" decel="0.677" speedDev="0.000" speedFactor="4.000" vClass="bicycle">
            <param key="has.fcd.device" value="true"/>
        </vType>
        <vType id="vehDist54" accel="1.077" maxSpeed="7.804" decel="0.859" speedDev="0.000" speedFactor="4.000" vClass="bicycle">
            <param key="has.fcd.device" value="true"/>
        </vType>
        <vType id="vehDist55" accel="0.853" maxSpeed="6.624" decel="1.189" speedDev="0.000" speedFactor="4.000" vClass="bicycle">
            <param key="has.fcd.device" value="true"/>
        </vType>
        <vType id="vehDist56" accel="0.935" maxSpeed="7.026" decel="0.721" speedDev="0.000" speedFactor="4.000" vClass="bicycle">
            <param key="has.fcd.device" value="true"/>
        </vType>
        <vType id="vehDist57" accel="0.932" maxSpeed="6.203" decel="0.598" speedDev="0.000" speedFactor="4.000" vClass="bicycle">
            <param key="has.fcd.device" value="true"/>
        </vType>
        <vType id="vehDist58" accel="0.710" maxSpeed="8.088" decel="0.795" speedDev="0.000" speedFactor="4.000" vClass="bicycle">
            <param key="has.fcd.device" value="true"/>
        </vType>
        <vType id="vehDist59" accel="0.913" maxSpeed="8.523" decel="0.723" speedDev="0.000" speedFactor="4.000" vClass="bicycle">
            <param key="has.fcd.device" value="true"/>
        </vType>
        <vType id="vehDist60" accel="1.054" maxSpeed="6.055" decel="0.575" speedDev="0.000" speedFactor="4.000" vClass="bicycle">
            <param key="has.fcd.device" value="true"/>
        </vType>
        <vType id="vehDist61" accel="1.060" maxSpeed="6.494" decel="0.958" speedDev="0.000" speedFactor="4.000" vClass="bicycle">
            <param key="has.fcd.device" value="true"/>
        </vType>
        <vType id="vehDist62" accel="1.173" maxSpeed="6.651" decel="0.579" speedDev="0.000" speedFactor="4.000" vClass="bicycle">
            <param key="has.fcd.device" value="true"/>
        </vType>
        <vType id="vehDist63" accel="1.062" maxSpeed="7.205" decel="0.726" speedDev="0.000" speedFactor="4.000" vClass="bicycle">
            <param key="has.fcd.device" value="true"/>
        </vType>
        <vType id="vehDist64" accel="0.895" maxSpeed="5.880" decel="1.032" speedDev="0.000" speedFactor="4.000" vClass="bicycle">
            <param key="has.fcd.device" value="true"/>
        </vType>
        <vType id="vehDist65" accel="0.979" maxSpeed="6.654" decel="1.003" speedDev="0.000" speedFactor="4.000" vClass="bicycle">
            <param key="has.fcd.device" value="true"/>
        </vType>
        <vType id="vehDist66" accel="0.726" maxSpeed="6.275" decel="0.632" speedDev="0.000" speedFactor="4.000" vClass="bicycle">
            <param key="has.fcd.device" value="true"/>
        </vType>
        <vType id="vehDist67" accel="0.731" maxSpeed="6.531" decel="0.735" speedDev="0.000" speedFactor="4.000" vClass="bicycle">
            <param key="has.fcd.device" value="true"/>
        </vType>
        <vType id="vehDist68" accel="1.067" maxSpeed="6.132" decel="1.304" speedDev="0.000" speedFactor="4.000" vClass="bicycle">
            <param key="has.fcd.device" value="true"/>
        </vType>
        <vType id="vehDist69" accel="1.008" maxSpeed="8.169" decel="0.835" speedDev="0.000" speedFactor="4.000" vClass="bicycle">
            <param key="has.fcd.device" value="true"/>
        </vType>
        <vType id="vehDist70" accel="1.062" maxSpeed="8.045" decel="0.891" speedDev="0.000" speedFactor="4.000" vClass="bicycle">
            <param key="has.fcd.device" value="true"/>
        </vType>
        <vType id="vehDist71" accel="1.209" maxSpeed="6.358" decel="0.781" speedDev="0.000" speedFactor="4.000" vClass="bicycle">
            <param key="has.fcd.device" value="true"/>
        </vType>
        <vType id="vehDist72" accel="1.084" maxSpeed="8.075" decel="1.024" speedDev="0.000" speedFactor="4.000" vClass="bicycle">
            <param key="has.fcd.device" value="true"/>
        </vType>
        <vType id="vehDist73" accel="0.648" maxSpeed="7.286" decel="0.725" speedDev="0.000" speedFactor="4.000" vClass="bicycle">
            <param key="has.fcd.device" value="true"/>
        </vType>
        <vType id="vehDist74" accel="0.920" maxSpeed="6.610" decel="0.757" speedDev="0.000" speedFactor="4.000" vClass="bicycle">
            <param key="has.fcd.device" value="true"/>
        </vType>
        <vType id="vehDist75" accel="1.221" maxSpeed="6.420" decel="1.266" speedDev="0.000" speedFactor="4.000" vClass="bicycle">
            <param key="has.fcd.device" value="true"/>
        </vType>
        <vType id="vehDist76" accel="0.971" maxSpeed="7.234" decel="0.971" speedDev="0.000" speedFactor="4.000" vClass="bicycle">
            <param key="has.fcd.device" value="true"/>
        </vType>
        <vType id="vehDist77" accel="0.889" maxSpeed="6.156" decel="0.741" speedDev="0.000" speedFactor="4.000" vClass="bicycle">
            <param key="has.fcd.device" value="true"/>
        </vType>
        <vType id="vehDist78" accel="1.360" maxSpeed="5.984" decel="1.192" speedDev="0.000" speedFactor="4.000" vClass="bicycle">
            <param key="has.fcd.device" value="true"/>
        </vType>
        <vType id="vehDist79" accel="0.948" maxSpeed="7.510" decel="0.612" speedDev="0.000" speedFactor="4.000" vClass="bicycle">
            <param key="has.fcd.device" value="true"/>
        </vType>
        <vType id="vehDist80" accel="1.299" maxSpeed="6.260" decel="0.969" speedDev="0.000" speedFactor="4.000" vClass="bicycle">
            <param key="has.fcd.device" value="true"/>
        </vType>
        <vType id="vehDist81" accel="0.913" maxSpeed="7.086" decel="0.971" speedDev="0.000" speedFactor="4.000" vClass="bicycle">
            <param key="has.fcd.device" value="true"/>
        </vType>
        <vType id="vehDist82" accel="0.654" maxSpeed="7.316" decel="0.973" speedDev="0.000" speedFactor="4.000" vClass="bicycle">
            <param key="has.fcd.device" value="true"/>
        </vType>
        <vType id="vehDist83" accel="1.129" maxSpeed="6.495" decel="0.507" speedDev="0.000" speedFactor="4.000" vClass="bicycle">
            <param key="has.fcd.device" value="true"/>
        </vType>
        <vType id="vehDist84" accel="0.818" maxSpeed="6.048" decel="0.987" speedDev="0.000" speedFactor="4.000" vClass="bicycle">
            <param key="has.fcd.device" value="true"/>
        </vType>
        <vType id="vehDist85" accel="0.866" maxSpeed="7.140" decel="1.260" speedDev="0.000" speedFactor="4.000" vClass="bicycle">
            <param key="has.fcd.device" value="true"/>
        </vType>
        <vType id="vehDist86" accel="1.000" maxSpeed="6.704" decel="1.024" speedDev="0.000" speedFactor="4.000" vClass="bicycle">
            <param key="has.fcd.device" value="true"/>
        </vType>
        <vType id="vehDist87" accel="0.932" maxSpeed="6.273" decel="0.867" speedDev="0.000" speedFactor="4.000" vClass="bicycle">
            <param key="has.fcd.device" value="true"/>
        </vType>
        <vType id="vehDist88" accel="0.838" maxSpeed="6.628" decel="0.747" speedDev="0.000" speedFactor="4.000" vClass="bicycle">
            <param key="has.fcd.device" value="true"/>
        </vType>
        <vType id="vehDist89" accel="0.692" maxSpeed="5.946" decel="1.094" speedDev="0.000" speedFactor="4.000" vClass="bicycle">
            <param key="has.fcd.device" value="true"/>
        </vType>
        <vType id="vehDist90" accel="0.770" maxSpeed="6.126" decel="0.829" speedDev="0.000" speedFactor="4.000" vClass="bicycle">
            <param key="has.fcd.device" value="true"/>
        </vType>
        <vType id="vehDist91" accel="0.959" maxSpeed="7.234" decel="1.082" speedDev="0.000" speedFactor="4.000" vClass="bicycle">
            <param key="has.fcd.device" value="true"/>
        </vType>
        <vType id="vehDist92" accel="0.746" maxSpeed="6.163" decel="0.786" speedDev="0.000" speedFactor="4.000" vClass="bicycle">
            <param key="has.fcd.device" value="true"/>
        </vType>
        <vType id="vehDist93" accel="0.952" maxSpeed="5.528" decel="0.786" speedDev="0.000" speedFactor="4.000" vClass="bicycle">
            <param key="has.fcd.device" value="true"/>
        </vType>
        <vType id="vehDist94" accel="0.883" maxSpeed="5.780" decel="1.094" speedDev="0.000" speedFactor="4.000" vClass="bicycle">
            <param key="has.fcd.device" value="true"/>
        </vType>
        <vType id="vehDist95" accel="0.808" maxSpeed="7.491" decel="1.254" speedDev="0.000" speedFactor="4.000" vClass="bicycle">
            <param key="has.fcd.device" value="true"/>
        </vType>
        <vType id="vehDist96" accel="1.041" maxSpeed="6.217" decel="0.710" speedDev="0.000" speedFactor="4.000" vClass="bicycle">
            <param key="has.fcd.device" value="true"/>
        </vType>
        <vType id="vehDist97" accel="0.876" maxSpeed="6.760" decel="0.703" speedDev="0.000" speedFactor="4.000" vClass="bicycle">
            <param key="has.fcd.device" value="true"/>
        </vType>
        <vType id="vehDist98" accel="0.971" maxSpeed="6.117" decel="0.979" speedDev="0.000" speedFactor="4.000" vClass="bicycle">
            <param key="has.fcd.device" value="true"/>
        </vType>
        <vType id="vehDist99" accel="0.997" maxSpeed="6.831" decel="0.990" speedDev="0.000" speedFactor="4.000" vClass="bicycle">
            <param key="has.fcd.device" value="true"/>
        </vType>
    </vTypeDistribution>

	<route edges="318276285#0 318276285#1 6277270 37226971#0 37226971#1 46839074#0 46839074#1 41424988 60769283#0 39351130#0 311849673#1 311849674#1 311849674#2 311849674#3 311849674#4 311849674#5 311849674#6 310172801#0 122048055#1 122048055#3 122048055#6 122048055#7 122048055#8 122048055#9 310172805#0 6263126#1 6263126#2 37226919#0 37226919#1 37226919#2 267234132#1 59636543#0 59636543#1 59636543#2 310172797#0 310172797#1 814315511#1 814315511#2 310172795#0 310172795#1 310172795#2 310172795#3 310172795#6 318282842#0 318282842#1 318282844#0 318282844#1 318282844#2 310172803#0 310172803#1 24540244#0 24540244#1 24540244#2 310172810#0 4782480#1" color="yellow" id="route_0"/>
    <flow id="flow_0" type="vehDist" begin="0.00" route="route_0" end="14400.00" number="140"/>

    <trip id="0" depart="0.00" from="318276285#1" to="-146693079"/>
    <trip id="2" depart="2.00" from="-154381203#0" to="-37633352#2"/>
    <trip id="6" depart="6.00" from="25771197#6" to="881598757#2"/>
    <trip id="7" depart="7.00" from="154381210#3" to="310172795#6"/>
    <trip id="8" depart="8.00" from="4685876#1" to="311849674#6"/>
    <trip id="9" depart="9.00" from="4782481#0" to="310172805#0"/>
    <trip id="12" depart="12.00" from="154381203#1" to="-40646288"/>
    <trip id="13" depart="13.00" from="-51069314" to="623919822#0"/>
    <trip id="14" depart="14.00" from="318282844#0" to="311849674#1"/>
    <trip id="15" depart="15.00" from="-25771197#7" to="42157902#2"/>
    <trip id="16" depart="16.00" from="-25771197#3" to="154381215#2"/>
    <trip id="21" depart="21.00" from="320892561" to="154381233#1"/>
    <trip id="22" depart="22.00" from="-21798031" to="317183776"/>
    <trip id="23" depart="23.00" from="4615777#4" to="194071688#5"/>
    <trip id="24" depart="24.00" from="-175744669#0" to="154381224#0"/>
    <trip id="27" depart="27.00" from="25331350" to="-310172811#0"/>
    <trip id="29" depart="29.00" from="-623193982#0" to="318282842#1"/>
    <trip id="30" depart="30.00" from="-10864589" to="122048055#6"/>
    <trip id="33" depart="33.00" from="-194071688#6" to="24540244#2"/>
    <trip id="36" depart="36.00" from="229061362#0" to="310172795#3"/>
    <trip id="37" depart="37.00" from="-39351129#1" to="-881598757#4"/>
    <trip id="40" depart="40.00" from="-229061361" to="-42157902#1"/>
    <trip id="44" depart="44.00" from="-42157884#0" to="-240829637"/>
    <trip id="45" depart="45.00" from="623193982#2" to="310172803#1"/>
    <trip id="48" depart="48.00" from="-199578957" to="194071690#0"/>
    <trip id="51" depart="51.00" from="4782481#0" to="-4685728#3"/>
    <trip id="58" depart="58.00" from="154381211#0" to="881902282#1"/>
    <trip id="61" depart="61.00" from="823635970#1" to="310172806#0"/>
    <trip id="63" depart="63.00" from="25331371#0" to="4782480#5"/>
    <trip id="68" depart="68.00" from="25760738#0" to="623193982#2"/>
    <trip id="69" depart="69.00" from="-4479174#1" to="154381233#1"/>
    <trip id="70" depart="70.00" from="34944815#0" to="-713725659#3"/>
    <trip id="74" depart="74.00" from="32644395#4" to="623919822#1"/>
    <trip id="76" depart="76.00" from="-595906859" to="310172810#0"/>
    <trip id="79" depart="79.00" from="24540243#1" to="62214794#2"/>
    <trip id="83" depart="83.00" from="42157902#1" to="310172795#6"/>
    <trip id="84" depart="84.00" from="60769283#0" to="310172795#0"/>
    <trip id="88" depart="88.00" from="600833817" to="-40646288"/>
    <trip id="89" depart="89.00" from="4479174#0" to="596072109"/>
    <trip id="92" depart="92.00" from="464609372#0" to="595906859"/>
    <trip id="94" depart="94.00" from="464609372#0" to="-596072109"/>
    <trip id="96" depart="96.00" from="4615777#6" to="-42157902#3"/>
    <trip id="98" depart="98.00" from="11273359#2" to="499658100#0"/>
    <trip id="101" depart="101.00" from="881598757#0" to="-310172811#0"/>
    <trip id="102" depart="102.00" from="7626019#4" to="-563494116#0"/>
    <trip id="106" depart="106.00" from="25771197#7" to="42157884#0"/>
    <trip id="107" depart="107.00" from="32644395#4" to="122048055#9"/>
    <trip id="108" depart="108.00" from="-881598757#1" to="4782480#2"/>
    <trip id="109" depart="109.00" from="-7626019#4" to="175744669#5"/>
    <trip id="114" depart="114.00" from="31302416#0" to="122048056#2"/>
    <trip id="115" depart="115.00" from="34944815#1" to="-42157902#1"/>
    <trip id="119" depart="119.00" from="320892561" to="-123033990#1"/>
    <trip id="121" depart="121.00" from="-4685728#5" to="4782480#2"/>
    <trip id="122" depart="122.00" from="332909265#0" to="881902283#1"/>
    <trip id="123" depart="123.00" from="40521414#0" to="25585952#0"/>
    <trip id="124" depart="124.00" from="229061361" to="-4688802#0"/>
    <trip id="132" depart="132.00" from="154381211#0" to="-123033990#1"/>
    <trip id="136" depart="136.00" from="-154381203#1" to="318282844#2"/>
    <trip id="137" depart="137.00" from="-127538492#3" to="282475921#0"/>
    <trip id="138" depart="138.00" from="gneE3" to="127361055#4"/>
    <trip id="139" depart="139.00" from="6277270" to="-37633352#2"/>
    <trip id="140" depart="140.00" from="-229061362#2" to="37226918#0"/>
    <trip id="143" depart="143.00" from="4045243#1" to="-194071688#1"/>
    <trip id="144" depart="144.00" from="37226921#3" to="317183776"/>
    <trip id="147" depart="147.00" from="-229061361" to="881902282#0"/>
    <trip id="150" depart="150.00" from="31302416#2" to="4688807#2"/>
    <trip id="151" depart="151.00" from="39351129#1" to="194071690#2"/>
    <trip id="152" depart="152.00" from="42157884#0" to="814315511#1"/>
    <trip id="153" depart="153.00" from="25771197#7" to="24540244#1"/>
    <trip id="157" depart="157.00" from="122048056#1" to="563494116#0"/>
    <trip id="161" depart="161.00" from="25771197#3" to="194071688#7"/>
    <trip id="163" depart="163.00" from="25771197#6" to="441738333#0"/>
    <trip id="164" depart="164.00" from="-31302416#1" to="-42157884#0"/>
    <trip id="167" depart="167.00" from="-6229286#2" to="-202112398#2"/>
    <trip id="168" depart="168.00" from="-34944815#2" to="-42157902#3"/>
    <trip id="169" depart="169.00" from="-31302266" to="-127361055#2"/>
    <trip id="170" depart="170.00" from="51069314" to="310172804#1"/>
    <trip id="172" depart="172.00" from="-31302416#1" to="-154381228#3"/>
    <trip id="173" depart="173.00" from="623919822#2" to="240829640"/>
    <trip id="176" depart="176.00" from="4615777#3" to="-42157902#2"/>
    <trip id="177" depart="177.00" from="881902285#0" to="-881598757#1"/>
    <trip id="184" depart="184.00" from="32644395#2" to="623193982#1"/>
    <trip id="185" depart="185.00" from="318282844#0" to="62214794#3"/>
    <trip id="186" depart="186.00" from="-25771197#4" to="-881598757#2"/>
    <trip id="187" depart="187.00" from="431551308" to="310172803#0"/>
    <trip id="191" depart="191.00" from="34944815#1" to="-600833817"/>
    <trip id="193" depart="193.00" from="310172804#2" to="318282836#1"/>
    <trip id="195" depart="195.00" from="123033990#1" to="122048056#1"/>
    <trip id="197" depart="197.00" from="-6229430#0" to="6263126#2"/>
    <trip id="198" depart="198.00" from="46839074#0" to="310172795#3"/>
    <trip id="207" depart="207.00" from="-229061362#0" to="881598757#2"/>
    <trip id="208" depart="208.00" from="-25771197#0" to="310172795#3"/>
    <trip id="210" depart="210.00" from="4045243#2" to="25585952#3"/>
    <trip id="213" depart="213.00" from="6229430#0" to="25585952#2"/>
    <trip id="214" depart="214.00" from="-600833817" to="4615779#5"/>
    <trip id="215" depart="215.00" from="-6229286#2" to="-713725659#3"/>
    <trip id="216" depart="216.00" from="24540243#1" to="-25585952#0"/>
    <trip id="217" depart="217.00" from="25771197#7" to="123033990#5"/>
    <trip id="221" depart="221.00" from="464609372#0" to="154381228#0"/>
    <trip id="222" depart="222.00" from="32644395#4" to="4688802#0"/>
    <trip id="226" depart="226.00" from="318282847#1" to="-25585952#4"/>
    <trip id="231" depart="231.00" from="6229430#0" to="gneE2"/>
    <trip id="232" depart="232.00" from="-202112398#0" to="318282836#0"/>
    <trip id="233" depart="233.00" from="51069314" to="202112398#2"/>
    <trip id="235" depart="235.00" from="-154381224#0" to="4616572#2"/>
    <trip id="236" depart="236.00" from="-6229758" to="154381215#0"/>
    <trip id="237" depart="237.00" from="310172797#1" to="4615779#6"/>
    <trip id="238" depart="238.00" from="-25771197#6" to="-194071688#3"/>
    <trip id="242" depart="242.00" from="318276285#1" to="194071688#6"/>
    <trip id="243" depart="243.00" from="-37633352#2" to="154381224#1"/>
    <trip id="245" depart="245.00" from="881902285#1" to="-623193982#2"/>
    <trip id="246" depart="246.00" from="-600833798" to="310172802#0"/>
    <trip id="247" depart="247.00" from="-154381228#0" to="310172811#0"/>