<?xml version="1.0" encoding="UTF-8"?>

<!-- generated on 2023-01-19 18:47:58 by Eclipse SUMO netedit Version v1_15_0+1445-9ed6055add5
-->

<routes xmlns:xsi="http://www.w3.org/2001/XMLSchema-instance" xsi:noNamespaceSchemaLocation="http://sumo.dlr.de/xsd/routes_file.xsd">
    <vType id="veh_passenger" vClass="passenger"/>
    <!-- Routes -->
    <route id="bikelane" edges="288283592#0 288283592#1 288283592#2 288283592#3 288283592#4 288283592#5 288283592#6 288283592#7 288283592#8 288283592#9 288283592#10 288283592#11 288283592#13 288283592#14 288283592#15 288283592#16 288283592#17 288283592#20 288283592#21 288283592#22 288283592#23 288283592#24 288283592#27 288283592#28 288283592#29"/>
    <route id="road" edges="151850904#1 151850904#2 151850904#3 151850904#4 151850904#5 151850904#6 38349616#1 38349616#2 1118923884#1 37280968#1 1119851404 161773732#0 161773732#2 161773732#3 313576545#0"/>
    <!-- Vehicles, persons and containers (sorted by depart) -->
    <trip id="veh0" type="veh_passenger" depart="0.00" departLane="best" from="310821941" to="-149789272#4"/>
    <flow id="f_1" type="vehDist" begin="0.00" route="road" end="14400.00" number="300"/>
    <trip id="veh1" type="veh_passenger" depart="5.70" departLane="best" departSpeed="max" from="-53530907#4" to="-450597754#3"/>
    <trip id="veh2" type="veh_passenger" depart="11.40" departLane="best" from="55607472#5" to="163989146#3"/>
    <trip id="veh3" type="veh_passenger" depart="17.10" departLane="best" from="151850904#3" to="-151521564#9"/>
    <trip id="veh4" type="veh_passenger" depart="22.80" departLane="best" from="4520027#2" to="163989135#1"/>
    <trip id="veh5" type="veh_passenger" depart="28.51" departLane="best" from="-151521564#4" to="4060419#3"/>
    <trip id="veh7" type="veh_passenger" depart="39.91" departLane="best" from="-4520029#1" to="27822844#1"/>
    <trip id="veh8" type="veh_passenger" depart="45.61" departLane="best" from="4520030#6" to="-111006551#12"/>
    <trip id="veh9" type="veh_passenger" depart="51.31" departLane="best" from="-4520029#3" to="315127282#0"/>
    <trip id="veh10" type="veh_passenger" depart="57.01" departLane="best" from="100177587#0" to="310829058"/>
    <trip id="veh11" type="veh_passenger" depart="62.71" departLane="best" from="-87598989#3" to="-93195090#0"/>
    <trip id="veh12" type="veh_passenger" depart="68.41" departLane="best" from="-163989147#5" to="17984616#0"/>
    <trip id="veh13" type="veh_passenger" depart="74.11" departLane="best" from="4673762#2" to="292767093#1"/>
    <trip id="veh14" type="veh_passenger" depart="79.82" departLane="best" from="-4520029#8" to="38349616#1"/>
    <trip id="veh15" type="veh_passenger" depart="85.52" departLane="best" from="-190356098#1" to="920682557"/>
    <trip id="veh16" type="veh_passenger" depart="91.22" departLane="best" departSpeed="max" from="122926430#0" to="-236713562#2"/>
    <trip id="veh17" type="veh_passenger" depart="96.92" departLane="best" from="4651501#2" to="30199131#3"/>
    <trip id="veh18" type="veh_passenger" depart="102.62" departLane="best" from="4820410#3" to="27822839#3"/>
    <trip id="veh19" type="veh_passenger" depart="108.32" departLane="best" from="-36996107#1" to="-155041002#5"/>
    <trip id="veh20" type="veh_passenger" depart="114.02" departLane="best" departSpeed="max" from="-459027200#2" to="-58312556#0"/>
    <trip id="veh21" type="veh_passenger" depart="119.72" departLane="best" from="-163989135#1" to="459027199#1"/>
    <trip id="veh22" type="veh_passenger" depart="125.42" departLane="best" from="-181922320#1" to="-5215292#3"/>
    <trip id="veh23" type="veh_passenger" depart="131.12" departLane="best" from="310817731#0" to="1110882606#2"/>
    <trip id="veh24" type="veh_passenger" depart="136.83" departLane="best" from="114256582#0" to="-4079079#6"/>
    <trip id="veh25" type="veh_passenger" depart="142.53" departLane="best" from="-5215165#1" to="844568710"/>
    <trip id="veh26" type="veh_passenger" depart="148.23" departLane="best" from="310823110#0" to="-29279743#9"/>
    <trip id="veh27" type="veh_passenger" depart="153.93" departLane="best" from="-37295461#0" to="38159426#3"/>
    <trip id="veh28" type="veh_passenger" depart="159.63" departLane="best" from="34130308#1" to="121663007#4"/>
    <trip id="veh29" type="veh_passenger" depart="165.33" departLane="best" from="95735556#0" to="310817730#4"/>
    <trip id="veh30" type="veh_passenger" depart="171.03" departLane="best" from="24998128#0" to="313579593#0"/>
    <trip id="veh31" type="veh_passenger" depart="176.73" departLane="best" from="4673715#3" to="-4079079#2"/>
    <trip id="veh32" type="veh_passenger" depart="182.43" departLane="best" departSpeed="max" from="-459027200#2" to="151866164#2"/>
    <trip id="veh33" type="veh_passenger" depart="188.14" departLane="best" departSpeed="max" from="-851166560" to="-501462499#3"/>
    <trip id="veh34" type="veh_passenger" depart="193.84" departLane="best" from="4262228#1" to="851113019#2"/>
    <trip id="veh35" type="veh_passenger" depart="199.54" departLane="best" from="5215037#2" to="-851113025#3"/>
    <trip id="veh36" type="veh_passenger" depart="205.24" departLane="best" from="310829059#3" to="146018788#0"/>
    <trip id="veh37" type="veh_passenger" depart="210.94" departLane="best" from="717957944#1" to="155603789#4"/>
    <trip id="veh38" type="veh_passenger" depart="216.64" departLane="best" from="-5215037#1" to="-4651502#1"/>
    <trip id="veh39" type="veh_passenger" depart="222.34" departLane="best" departSpeed="max" from="26612843#0" to="4853847#6"/>
    <trip id="veh40" type="veh_passenger" depart="228.04" departLane="best" from="27822841#1" to="-55607472#6"/>
    <trip id="veh41" type="veh_passenger" depart="233.74" departLane="best" from="146808037#4" to="42929831#0"/>
    <trip id="veh42" type="veh_passenger" depart="239.45" departLane="best" from="971669435" to="163989140#4"/>
    <trip id="veh43" type="veh_passenger" depart="245.15" departLane="best" from="163989147#15" to="-155603766#13"/>
    <trip id="veh44" type="veh_passenger" depart="250.85" departLane="best" from="-432170629#1" to="151850904#1"/>
    <trip id="veh45" type="veh_passenger" depart="256.55" departLane="best" from="-156961984#3" to="-124610213#1"/>
    <trip id="veh46" type="veh_passenger" depart="262.25" departLane="best" from="96213999#7" to="16786179#12"/>
    <trip id="veh47" type="veh_passenger" depart="267.95" departLane="best" from="93195092#2" to="4790497#5"/>
    <trip id="veh48" type="veh_passenger" depart="273.65" departLane="best" from="-1119418567#0" to="-371866616"/>
    <trip id="veh49" type="veh_passenger" depart="279.35" departLane="best" from="315127281#0" to="17984616#8"/>
    <trip id="veh50" type="veh_passenger" depart="285.05" departLane="best" from="-5215165#1" to="310817730#6"/>
    <trip id="veh51" type="veh_passenger" depart="290.75" departLane="best" from="-244549197#2" to="152130806#0"/>
    <trip id="veh52" type="veh_passenger" depart="296.46" departLane="best" from="-51787589#3" to="-490386700#1"/>
    <trip id="veh53" type="veh_passenger" depart="302.16" departLane="best" from="163989128#1" to="-38868689#1"/>
    <trip id="veh54" type="veh_passenger" depart="307.86" departLane="best" from="-71001814#2" to="501462499#2"/>
    <trip id="veh55" type="veh_passenger" depart="313.56" departLane="best" departSpeed="max" from="-796660770" to="310817730#2"/>
    <trip id="veh56" type="veh_passenger" depart="319.26" departLane="best" from="292962068" to="310707192#1"/>
    <trip id="veh57" type="veh_passenger" depart="324.96" departLane="best" from="4060426#3" to="181922320#0"/>
    <trip id="veh58" type="veh_passenger" depart="330.66" departLane="best" departSpeed="max" from="42446216#0" to="16786179#9"/>
    <trip id="veh59" type="veh_passenger" depart="336.36" departLane="best" from="-1093404774#2" to="-851153414#4"/>
    <trip id="veh60" type="veh_passenger" depart="342.06" departLane="best" from="-124610213#3" to="-786224784#6"/>
    <trip id="veh61" type="veh_passenger" depart="347.77" departLane="best" from="5215165#3" to="4645396#4"/>
    <trip id="veh62" type="veh_passenger" depart="353.47" departLane="best" from="851115543#1" to="-156961978#0"/>
    <trip id="veh63" type="veh_passenger" depart="359.17" departLane="best" from="5215165#1" to="-851115543#1"/>
    <trip id="veh64" type="veh_passenger" depart="364.87" departLane="best" from="1066044617" to="157032565"/>
    <trip id="veh65" type="veh_passenger" depart="370.57" departLane="best" from="-157041921#0" to="4003243#1"/>
    <trip id="veh66" type="veh_passenger" depart="376.27" departLane="best" from="4060632#7" to="-27822839#5"/>
    <trip id="veh67" type="veh_passenger" depart="381.97" departLane="best" from="156961986" to="234870645#1"/>
    <trip id="veh68" type="veh_passenger" depart="387.67" departLane="best" from="5215037#2" to="505114029#2"/>
    <trip id="veh69" type="veh_passenger" depart="393.37" departLane="best" from="151850904#5" to="-416447051#2"/>
    <trip id="veh70" type="veh_passenger" depart="399.08" departLane="best" from="206009048#1" to="38349616#1"/>
    <trip id="veh71" type="veh_passenger" depart="404.78" departLane="best" from="-4060651#1" to="-851113021#1"/>
    <trip id="veh72" type="veh_passenger" depart="410.48" departLane="best" from="152524923#2" to="163989147#0"/>
    <trip id="veh73" type="veh_passenger" depart="416.18" departLane="best" from="-273803056#2" to="-4519978#2"/>
    <trip id="veh74" type="veh_passenger" depart="421.88" departLane="best" from="-96213999#7" to="27822842#7"/>
    <trip id="veh75" type="veh_passenger" depart="427.58" departLane="best" from="-4592386#1" to="-42929831#5"/>
    <trip id="veh76" type="veh_passenger" depart="433.28" departLane="best" from="-157188169" to="310707190#6"/>
    <trip id="veh77" type="veh_passenger" depart="438.98" departLane="best" departSpeed="max" from="-459027200#2" to="-58312556#7"/>
    <trip id="veh78" type="veh_passenger" depart="444.68" departLane="best" from="-4790497#5" to="-157041921#2"/>
    <trip id="veh79" type="veh_passenger" depart="450.38" departLane="best" from="-4651501#1" to="310832978#0"/>
    <trip id="veh80" type="veh_passenger" depart="456.09" departLane="best" from="-432170629#0" to="-28019886#0"/>
    <trip id="veh81" type="veh_passenger" depart="461.79" departLane="best" from="851113021#0" to="-273803056#4"/>
    <trip id="veh82" type="veh_passenger" depart="467.49" departLane="best" from="156961984#3" to="-4262228#1"/>
    <trip id="veh83" type="veh_passenger" depart="473.19" departLane="best" from="-17984616#0" to="151866167#0"/>
    <trip id="veh84" type="veh_passenger" depart="478.89" departLane="best" from="151850904#5" to="156961975#1"/>
    <trip id="veh85" type="veh_passenger" depart="484.59" departLane="best" from="392103885#2" to="310832991#0"/>
    <trip id="veh86" type="veh_passenger" depart="490.29" departLane="best" from="943542795#0" to="17984616#7"/>
    <trip id="veh87" type="veh_passenger" depart="495.99" departLane="best" from="-149789269#6" to="93195112#2"/>
    <trip id="veh88" type="veh_passenger" depart="501.69" departLane="best" from="4820410#3" to="-4651502#5"/>
    <trip id="veh89" type="veh_passenger" depart="507.40" departLane="best" departSpeed="max" from="-4000324#7" to="155039623#4"/>
    <trip id="veh90" type="veh_passenger" depart="513.10" departLane="best" from="151850904#3" to="-5215292#2"/>
    <trip id="veh91" type="veh_passenger" depart="518.80" departLane="best" from="-4822645#0" to="725976304"/>
    <trip id="veh92" type="veh_passenger" depart="524.50" departLane="best" from="152543150#0" to="4790497#7"/>
    <trip id="veh93" type="veh_passenger" depart="530.20" departLane="best" from="234870645#2" to="156961967#1"/>
    <trip id="veh94" type="veh_passenger" depart="535.90" departLane="best" from="983833343" to="-4651501#4"/>
    <trip id="veh95" type="veh_passenger" depart="541.60" departLane="best" from="475109925" to="-34130308#0"/>
    <trip id="veh96" type="veh_passenger" depart="547.30" departLane="best" from="157188169" to="424062930"/>
    <trip id="veh97" type="veh_passenger" depart="553.00" departLane="best" from="149789269#1" to="-156961978#0"/>
    <trip id="veh98" type="veh_passenger" depart="558.71" departLane="best" departSpeed="max" from="122926430#0" to="-93524623#2"/>
    <trip id="veh99" type="veh_passenger" depart="564.41" departLane="best" from="5215037#2" to="4262221"/>
    <trip id="veh100" type="veh_passenger" depart="570.11" departLane="best" from="-155603766#9" to="151850904#2"/>
    <trip id="veh101" type="veh_passenger" depart="575.81" departLane="best" from="87598989#4" to="-96213999#3"/>
    <trip id="veh102" type="veh_passenger" depart="581.51" departLane="best" from="244549197#2" to="-371175393#4"/>
    <trip id="veh103" type="veh_passenger" depart="587.21" departLane="best" from="-312549779#0" to="-62140745#6"/>
    <trip id="veh104" type="veh_passenger" depart="592.91" departLane="best" departSpeed="max" from="93195090#0" to="27822839#9"/>
    <trip id="veh105" type="veh_passenger" depart="598.61" departLane="best" departSpeed="max" from="224855183#0" to="39322226#2"/>
    <trip id="veh106" type="veh_passenger" depart="604.31" departLane="best" from="-156961972#3" to="27822842#0"/>
    <trip id="veh107" type="veh_passenger" depart="610.01" departLane="best" from="163989135#1" to="475919640#0"/>
    <trip id="veh108" type="veh_passenger" depart="615.72" departLane="best" from="-313577318#1" to="874202015"/>
    <trip id="veh109" type="veh_passenger" depart="621.42" departLane="best" from="-163989135#3" to="39321856#1"/>
    <trip id="veh110" type="veh_passenger" depart="627.12" departLane="best" departSpeed="max" from="28019889#0" to="312549779#0"/>
    <trip id="veh111" type="veh_passenger" depart="632.82" departLane="best" from="-4645396#5" to="-27222779#7"/>
    <trip id="veh112" type="veh_passenger" depart="638.52" departLane="best" from="552799309" to="-4651502#0"/>
    <trip id="veh113" type="veh_passenger" depart="644.22" departLane="best" from="-28019886#4" to="-30616063#1"/>
    <trip id="veh114" type="veh_passenger" depart="649.92" departLane="best" from="151636221#8" to="27822842#0"/>
    <trip id="veh115" type="veh_passenger" depart="655.62" departLane="best" from="166123298#1" to="8426244#0"/>
    <trip id="veh116" type="veh_passenger" depart="661.32" departLane="best" from="-4079079#5" to="362368395#2"/>
    <trip id="veh117" type="veh_passenger" depart="667.03" departLane="best" from="4651501#3" to="146018788#1"/>
    <trip id="veh118" type="veh_passenger" depart="672.73" departLane="best" from="313579594#0" to="71001814#4"/>
    <trip id="veh119" type="veh_passenger" depart="678.43" departLane="best" departSpeed="max" from="-851166560" to="394489292#0"/>
    <trip id="veh120" type="veh_passenger" depart="684.13" departLane="best" departSpeed="max" from="160488082#4" to="155603789#4"/>
    <trip id="veh121" type="veh_passenger" depart="689.83" departLane="best" from="97886000#3" to="-96213999#7"/>
    <trip id="veh122" type="veh_passenger" depart="695.53" departLane="best" departSpeed="max" from="160488082#4" to="-416447051#6"/>
    <trip id="veh123" type="veh_passenger" depart="701.23" departLane="best" from="5215037#2" to="8286442#5"/>
    <trip id="veh124" type="veh_passenger" depart="706.93" departLane="best" from="1126018885" to="-312549780#1"/>
    <trip id="veh125" type="veh_passenger" depart="712.63" departLane="best" from="30199131#1" to="943540702#1"/>
    <trip id="veh126" type="veh_passenger" depart="718.34" departLane="best" from="27822844#3" to="111006551#4"/>
    <trip id="veh127" type="veh_passenger" depart="724.04" departLane="best" departSpeed="max" from="459027216#0" to="-71001814#2"/>
    <trip id="veh128" type="veh_passenger" depart="729.74" departLane="best" from="313576545#0" to="844568712#2"/>
    <trip id="veh129" type="veh_passenger" depart="735.44" departLane="best" from="-28736384#0" to="26632545#6"/>
    <trip id="veh130" type="veh_passenger" depart="741.14" departLane="best" from="234870645#6" to="236949942#2"/>
    <trip id="veh131" type="veh_passenger" depart="746.84" departLane="best" from="5348232#3" to="292767093#3"/>
    <trip id="veh132" type="veh_passenger" depart="752.54" departLane="best" departSpeed="max" from="376401312#2" to="4060632#1"/>
    <trip id="veh133" type="veh_passenger" depart="758.24" departLane="best" from="310817730#5" to="-49800591#1"/>
    <trip id="veh134" type="veh_passenger" depart="763.94" departLane="best" from="160489251#0" to="58312556#7"/>
    <trip id="veh135" type="veh_passenger" depart="769.64" departLane="best" from="-4673749#1" to="-163989147#5"/>
    <trip id="veh136" type="veh_passenger" depart="775.35" departLane="best" from="151850904#5" to="-5215165#3"/>
    <trip id="veh137" type="veh_passenger" depart="781.05" departLane="best" from="-1105553624#1" to="4060632#0"/>
    <trip id="veh138" type="veh_passenger" depart="786.75" departLane="best" from="310817731#1" to="-4853847#2"/>
    <trip id="veh139" type="veh_passenger" depart="792.45" departLane="best" from="39322227#1" to="-236713562#1"/>
    <trip id="veh140" type="veh_passenger" depart="798.15" departLane="best" from="151866165#1" to="-1110882606#0"/>
    <trip id="veh141" type="veh_passenger" depart="803.85" departLane="best" from="160489253#4" to="5215173#1"/>
    <trip id="veh142" type="veh_passenger" depart="809.55" departLane="best" from="60441778#1" to="22927279#0"/>
    <trip id="veh143" type="veh_passenger" depart="815.25" departLane="best" from="4651502#5" to="27822840#5"/>
    <trip id="veh144" type="veh_passenger" depart="820.95" departLane="best" from="-310707190#2" to="27822839#2"/>
    <trip id="veh145" type="veh_passenger" depart="826.66" departLane="best" from="-851129967#1" to="-560341944#1"/>
    <trip id="veh146" type="veh_passenger" depart="832.36" departLane="best" departSpeed="max" from="4519925#0" to="4790497#4"/>
    <trip id="veh147" type="veh_passenger" depart="838.06" departLane="best" from="58312556#9" to="-4098001#0"/>
    <trip id="veh148" type="veh_passenger" depart="843.76" departLane="best" from="-4822645#0" to="234870644#1"/>
    <trip id="veh149" type="veh_passenger" depart="849.46" departLane="best" departSpeed="max" from="42446216#0" to="5215292#1"/>
    <trip id="veh150" type="veh_passenger" depart="855.16" departLane="best" from="149789272#6" to="30816697#3"/>
    <trip id="veh151" type="veh_passenger" depart="860.86" departLane="best" from="-310829059#5" to="796660770"/>
    <trip id="veh152" type="veh_passenger" depart="866.56" departLane="best" from="4853847#7" to="93195104#0"/>
    <trip id="veh153" type="veh_passenger" depart="872.26" departLane="best" from="456746071" to="5215165#1"/>
    <trip id="veh154" type="veh_passenger" depart="877.97" departLane="best" from="-151521564#11" to="392103885#1"/>
    <trip id="veh155" type="veh_passenger" depart="883.67" departLane="best" from="93524623#0" to="796660770"/>
    <trip id="veh156" type="veh_passenger" depart="889.37" departLane="best" from="4519978#1" to="4822646#1"/>
    <trip id="veh157" type="veh_passenger" depart="895.07" departLane="best" from="456746071" to="-501462498#1"/>
    <trip id="veh158" type="veh_passenger" depart="900.77" departLane="best" from="42750258#0" to="-236949942#3"/>
    <trip id="veh159" type="veh_passenger" depart="906.47" departLane="best" from="51476080#4" to="475919644#1"/>
    <trip id="veh160" type="veh_passenger" depart="912.17" departLane="best" from="-4520029#7" to="459027200#1"/>
    <trip id="veh161" type="veh_passenger" depart="917.87" departLane="best" from="-156961972#2" to="-786224784#0"/>
    <trip id="veh162" type="veh_passenger" depart="923.57" departLane="best" departSpeed="max" from="4519925#0" to="-4520029#10"/>
    <trip id="veh163" type="veh_passenger" depart="929.27" departLane="best" from="-149789272#6" to="4000324#3"/>
    <trip id="veh164" type="veh_passenger" depart="934.98" departLane="best" from="-93195112#0" to="4822646#2"/>
    <trip id="veh166" type="veh_passenger" depart="946.38" departLane="best" from="310821943#10" to="146808037#2"/>
    <trip id="veh167" type="veh_passenger" depart="952.08" departLane="best" from="93524623#4" to="17984616#6"/>
    <trip id="veh168" type="veh_passenger" depart="957.78" departLane="best" departSpeed="max" from="851115543#0" to="-26632545#2"/>
    <trip id="veh169" type="veh_passenger" depart="963.48" departLane="best" from="93195092#0" to="-38868689#1"/>
    <trip id="veh170" type="veh_passenger" depart="969.18" departLane="best" from="-236713562#2" to="151866167#6"/>
    <trip id="veh171" type="veh_passenger" depart="974.88" departLane="best" from="38868690#1" to="-851113024#0"/>
    <trip id="veh172" type="veh_passenger" depart="980.58" departLane="best" from="29279743#7" to="163989141#2"/>
    <trip id="veh173" type="veh_passenger" depart="986.29" departLane="best" from="126760930#0" to="27822839#13"/>
    <trip id="veh174" type="veh_passenger" depart="991.99" departLane="best" from="-49800592#2" to="322865672#3"/>
    <trip id="veh175" type="veh_passenger" depart="997.69" departLane="best" from="1105553618#0" to="-124559498"/>
    <trip id="veh176" type="veh_passenger" depart="1003.39" departLane="best" from="192283557#2" to="371861008#0"/>
    <trip id="veh177" type="veh_passenger" depart="1009.09" departLane="best" from="39322451#0" to="310832978#0"/>
    <trip id="veh178" type="veh_passenger" depart="1014.79" departLane="best" from="1119418565" to="157032563#1"/>
    <trip id="veh179" type="veh_passenger" depart="1020.49" departLane="best" from="313577317#0" to="87598989#3"/>
    <trip id="veh180" type="veh_passenger" depart="1026.19" departLane="best" from="39322451#0" to="-71001814#7"/>
    <trip id="veh181" type="veh_passenger" depart="1031.89" departLane="best" from="-851129968" to="151521563#1"/>
    <trip id="veh182" type="veh_passenger" depart="1037.60" departLane="best" from="-149789269#5" to="62140745#1"/>
    <trip id="veh183" type="veh_passenger" depart="1043.30" departLane="best" from="27822839#2" to="151636221#8"/>
    <trip id="veh184" type="veh_passenger" depart="1049.00" departLane="best" departSpeed="max" from="851115543#0" to="313576543#1"/>
    <trip id="veh185" type="veh_passenger" depart="1054.70" departLane="best" from="59531578#7" to="27222780#1"/>
    <trip id="veh186" type="veh_passenger" depart="1060.40" departLane="best" from="-8286442#3" to="234870644#6"/>
    <trip id="veh187" type="veh_passenger" depart="1066.10" departLane="best" from="-1093404774#2" to="-55607472#5"/>
    <trip id="veh188" type="veh_passenger" depart="1071.80" departLane="best" from="151866167#1" to="27822840#0"/>
    <trip id="veh189" type="veh_passenger" depart="1077.50" departLane="best" from="152524928#0" to="-416447051#7"/>
    <trip id="veh190" type="veh_passenger" depart="1083.20" departLane="best" from="156961984#5" to="57691467#1"/>
    <trip id="veh191" type="veh_passenger" depart="1088.90" departLane="best" departSpeed="max" from="4519925#0" to="36996107#0"/>
    <trip id="veh192" type="veh_passenger" depart="1094.61" departLane="best" from="163989143#0" to="163989146#3"/>
    <trip id="veh193" type="veh_passenger" depart="1100.31" departLane="best" from="310817730#2" to="-89840548#1"/>
    <trip id="veh194" type="veh_passenger" depart="1106.01" departLane="best" from="-4592385#0" to="39378780#2"/>
    <trip id="veh195" type="veh_passenger" depart="1111.71" departLane="best" from="313579594#2" to="-4519978#1"/>
    <trip id="veh196" type="veh_passenger" depart="1117.41" departLane="best" from="-4060632#3" to="-149789272#2"/>
    <trip id="veh197" type="veh_passenger" depart="1123.11" departLane="best" from="-475109927#0" to="156961983#8"/>
    <trip id="veh198" type="veh_passenger" depart="1128.81" departLane="best" from="475109927#3" to="160488082#2"/>
    <trip id="veh199" type="veh_passenger" depart="1134.51" departLane="best" from="151521565#5" to="310707190#2"/>
    <trip id="veh200" type="veh_passenger" depart="1140.21" departLane="best" from="-4060419#5" to="313579600#2"/>
    <trip id="veh201" type="veh_passenger" depart="1145.92" departLane="best" from="161766362#7" to="-4651501#3"/>
    <trip id="veh202" type="veh_passenger" depart="1151.62" departLane="best" from="310829059#5" to="-1105553662"/>
    <trip id="veh203" type="veh_passenger" depart="1157.32" departLane="best" from="-4000324#4" to="4060427#2"/>
    <trip id="veh204" type="veh_passenger" depart="1163.02" departLane="best" from="-234870645#2" to="151850904#6"/>
    <trip id="veh205" type="veh_passenger" depart="1168.72" departLane="best" from="-38868690#2" to="-851187929"/>
    <trip id="veh206" type="veh_passenger" depart="1174.42" departLane="best" from="163989147#5" to="155603789#3"/>
    <trip id="veh207" type="veh_passenger" depart="1180.12" departLane="best" from="-4820410#3" to="4673762#1"/>
    <trip id="veh208" type="veh_passenger" depart="1185.82" departLane="best" from="-156961967#2" to="4519931#2"/>
    <trip id="veh209" type="veh_passenger" depart="1191.52" departLane="best" from="313579591#0" to="943540703#0"/>
    <trip id="veh210" type="veh_passenger" depart="1197.23" departLane="best" departSpeed="max" from="28019889#0" to="851133450"/>
    <trip id="veh211" type="veh_passenger" depart="1202.93" departLane="best" from="-55607472#0" to="292950392#1"/>
    <trip id="veh212" type="veh_passenger" depart="1208.63" departLane="best" from="37666025#0" to="163989133#7"/>
    <trip id="veh213" type="veh_passenger" depart="1214.33" departLane="best" from="4651501#6" to="234870644#6"/>
    <trip id="veh214" type="veh_passenger" depart="1220.03" departLane="best" from="58312556#4" to="39321856#1"/>
    <trip id="veh215" type="veh_passenger" depart="1225.73" departLane="best" from="156961985#3" to="-4820410#1"/>
    <trip id="veh216" type="veh_passenger" depart="1231.43" departLane="best" from="-4790497#5" to="310719822#0"/>
    <trip id="veh217" type="veh_passenger" depart="1237.13" departLane="best" from="4060632#7" to="163989147#6"/>
    <trip id="veh218" type="veh_passenger" depart="1242.83" departLane="best" from="-310707192#3" to="5215037#3"/>
    <trip id="veh219" type="veh_passenger" depart="1248.53" departLane="best" from="-161766362#7" to="53530907#3"/>
    <trip id="veh220" type="veh_passenger" depart="1254.24" departLane="best" from="-5215538#6" to="-851129969#1"/>
    <trip id="veh221" type="veh_passenger" depart="1259.94" departLane="best" from="224855182#1" to="-29279743#10"/>
    <trip id="veh222" type="veh_passenger" depart="1265.64" departLane="best" from="-4592548#1" to="313579599#4"/>
    <trip id="veh223" type="veh_passenger" depart="1271.34" departLane="best" departSpeed="max" from="371175393#0" to="-157028288#2"/>
    <trip id="veh224" type="veh_passenger" depart="1277.04" departLane="best" from="149935566#2" to="206837827"/>
    <trip id="veh225" type="veh_passenger" depart="1282.74" departLane="best" from="151636221#10" to="4060651#6"/>
    <trip id="veh226" type="veh_passenger" depart="1288.44" departLane="best" from="151636221#9" to="-58312556#6"/>
    <trip id="veh227" type="veh_passenger" depart="1294.14" departLane="best" from="27822841#0" to="313579600#1"/>
    <trip id="veh228" type="veh_passenger" depart="1299.84" departLane="best" from="475919644#0" to="4060418#2"/>
    <trip id="veh229" type="veh_passenger" depart="1305.55" departLane="best" departSpeed="max" from="122926430#0" to="111006551#1"/>
    <trip id="veh230" type="veh_passenger" depart="1311.25" departLane="best" from="-111006551#1" to="394489292#2"/>
    <trip id="veh231" type="veh_passenger" depart="1316.95" departLane="best" from="475919641#2" to="-851153414#7"/>
    <trip id="veh232" type="veh_passenger" depart="1322.65" departLane="best" from="151636221#8" to="39322226#1"/>
    <trip id="veh233" type="veh_passenger" depart="1328.35" departLane="best" from="22927279#1" to="292767092#1"/>
    <trip id="veh234" type="veh_passenger" depart="1334.05" departLane="best" from="-4520029#1" to="42929831#0"/>
    <trip id="veh235" type="veh_passenger" depart="1339.75" departLane="best" from="152524923#0" to="-151521564#6"/>
    <trip id="veh236" type="veh_passenger" depart="1345.45" departLane="best" from="-96213999#12" to="-313577316#0"/>
    <trip id="veh237" type="veh_passenger" depart="1351.15" departLane="best" departSpeed="max" from="149789272#0" to="-32885349#0"/>
    <trip id="veh238" type="veh_passenger" depart="1356.86" departLane="best" from="-1110337673#0" to="-27822839#2"/>
    <trip id="veh239" type="veh_passenger" depart="1362.56" departLane="best" from="310707190#0" to="-151521564#11"/>
    <trip id="veh240" type="veh_passenger" depart="1368.26" departLane="best" from="134941607#1" to="26836882#2"/>
    <trip id="veh241" type="veh_passenger" depart="1373.96" departLane="best" from="-151521564#6" to="4790497#1"/>
    <trip id="veh242" type="veh_passenger" depart="1379.66" departLane="best" from="29279743#0" to="-156961969#6"/>
    <trip id="veh243" type="veh_passenger" depart="1385.36" departLane="best" departSpeed="max" from="-155603789#4" to="121663007#3"/>
    <trip id="veh244" type="veh_passenger" depart="1391.06" departLane="best" from="426542002#1" to="-851187924"/>
    <trip id="veh245" type="veh_passenger" depart="1396.76" departLane="best" from="4060424#2" to="121663007#3"/>
    <trip id="veh246" type="veh_passenger" depart="1402.46" departLane="best" from="4003243#1" to="-4645396#5"/>
    <trip id="veh247" type="veh_passenger" depart="1408.16" departLane="best" from="4853847#7" to="163989138#2"/>
    <trip id="veh248" type="veh_passenger" depart="1413.87" departLane="best" from="-124610213#3" to="181922320#0"/>
    <trip id="veh249" type="veh_passenger" depart="1419.57" departLane="best" from="98653129" to="1066044618#1"/>
    <trip id="veh250" type="veh_passenger" depart="1425.27" departLane="best" from="310823110#2" to="416447051#4"/>