<?xml version="1.0" encoding="UTF-8"?>

<!-- generated on 2023-01-19 18:47:37 by Eclipse SUMO netedit Version v1_15_0+1445-9ed6055add5
-->

<configuration xmlns:xsi="http://www.w3.org/2001/XMLSchema-instance" xsi:noNamespaceSchemaLocation="http://sumo.dlr.de/xsd/netconvertConfiguration.xsd">

    <input>
        <additional-files value="../../../../parameterization_impl/vTypeDistributions_default.add.xml"/>
        <route-files value="dachauer_stripped.trips.xml"/>
        <sumo-net-file value="dachauer.net.xml"/>
    </input>

    <output>
        <output.street-names value="true"/>
    </output>

    <processing>
        <geometry.min-radius.fix.railways value="false"/>
        <geometry.max-grade.fix value="false"/>
        <offset.disable-normalization value="true"/>
        <lefthand value="0"/>
    </processing>

    <junctions>
        <no-turnarounds value="true"/>
        <junctions.corner-detail value="5"/>
        <junctions.limit-turn-speed value="5.50"/>
        <rectangular-lane-cut value="0"/>
    </junctions>

    <pedestrian>
        <walkingareas value="0"/>
    </pedestrian>

</configuration>
