<?xml version="1.0" encoding="UTF-8"?>

<!-- generated on 2023-01-23 20:08:29 by Eclipse SUMO netedit Version v1_15_0+1833-50889087cf5
-->

<routes xmlns:xsi="http://www.w3.org/2001/XMLSchema-instance" xsi:noNamespaceSchemaLocation="http://sumo.dlr.de/xsd/routes_file.xsd">
    <!-- VTypes -->
    <vType id="veh_passenger" vClass="passenger"/>
    <!-- Routes -->
    <route id="bikelane" edges="137354141 366341398#0 366341398#1 224554587 366342134 -434375935#1 -434375935#0 -434375946#1 -434375946#0 -137354144#2 -137354144#1 -137354144#0"/>
    <flow id="f_1" type="vehDist" begin="0.00" route="bikelane" end="14400.00" number="100" departSpeed="max"/>
    <!-- Vehicles, persons and containers (sorted by depart) -->
    <trip id="veh0" type="veh_passenger" depart="0.00" departLane="best" from="250742412" to="-135417037"/>
    <trip id="veh1" type="veh_passenger" depart="9.80" departLane="best" departSpeed="max" from="131625166#0" to="-817586066#1"/>
    <trip id="veh2" type="veh_passenger" depart="19.60" departLane="best" from="251114321#1" to="250742413#0"/>
    <trip id="veh3" type="veh_passenger" depart="29.40" departLane="best" departSpeed="max" from="43111670#0" to="-138008939#1"/>
    <trip id="veh4" type="veh_passenger" depart="39.20" departLane="best" from="138005231" to="136815666#2"/>
    <trip id="veh5" type="veh_passenger" depart="49.01" departLane="best" from="-38032872#5" to="139534004#0"/>
    <trip id="veh6" type="veh_passenger" depart="58.81" departLane="best" from="136816609#1" to="4758403#0"/>
    <trip id="veh7" type="veh_passenger" depart="68.61" departLane="best" from="250742428#0" to="140491958"/>
    <trip id="veh8" type="veh_passenger" depart="78.41" departLane="best" from="-38032874" to="146395786"/>
    <trip id="veh9" type="veh_passenger" depart="88.21" departLane="best" from="31992106" to="-111979263"/>
    <trip id="veh10" type="veh_passenger" depart="98.01" departLane="best" from="31870747#0" to="250742426#0"/>
    <trip id="veh11" type="veh_passenger" depart="107.81" departLane="best" from="137346392" to="140977287#1"/>
    <trip id="veh12" type="veh_passenger" depart="117.61" departLane="best" from="68911747" to="-137346395#1"/>
    <trip id="veh13" type="veh_passenger" depart="127.42" departLane="best" from="358829964#0" to="187264126#7"/>
    <trip id="veh14" type="veh_passenger" depart="137.22" departLane="best" from="31870747#1" to="250745832#0"/>
    <trip id="veh16" type="veh_passenger" depart="156.82" departLane="best" from="137669890" to="-140491967#2"/>
    <trip id="veh17" type="veh_passenger" depart="166.62" departLane="best" departSpeed="max" from="346640056" to="31723299"/>
    <trip id="veh18" type="veh_passenger" depart="176.42" departLane="best" from="-38032872#2" to="140576295"/>
    <trip id="veh20" type="veh_passenger" depart="196.02" departLane="best" from="-407273107#1" to="136879211#0"/>
    <trip id="veh21" type="veh_passenger" depart="205.83" departLane="best" from="138008939#3" to="-1063006329"/>
    <trip id="veh22" type="veh_passenger" depart="215.63" departLane="best" from="-138010949#0" to="136307006#0"/>
    <trip id="veh23" type="veh_passenger" depart="225.43" departLane="best" from="137467889" to="-672844045#0"/>
    <trip id="veh24" type="veh_passenger" depart="235.23" departLane="best" from="250742429#0" to="4886753#2"/>
    <trip id="veh25" type="veh_passenger" depart="245.03" departLane="best" departSpeed="max" from="-142433484#1" to="250745832#0"/>
    <trip id="veh27" type="veh_passenger" depart="264.63" departLane="best" from="35679346#0" to="251114322"/>
    <trip id="veh28" type="veh_passenger" depart="274.43" departLane="best" from="44426114#0" to="136816610"/>
    <trip id="veh30" type="veh_passenger" depart="294.04" departLane="best" from="35428573#2" to="-584733220"/>
    <trip id="veh31" type="veh_passenger" depart="303.84" departLane="best" from="-396442563" to="137017167#0"/>
    <trip id="veh32" type="veh_passenger" depart="313.64" departLane="best" from="-4758403#5" to="138017230#0"/>
    <trip id="veh33" type="veh_passenger" depart="323.44" departLane="best" from="448480300" to="125445051#0"/>
    <trip id="veh34" type="veh_passenger" depart="333.24" departLane="best" from="214802503#2" to="396442563"/>
    <trip id="veh36" type="veh_passenger" depart="352.84" departLane="best" from="-139500472#2" to="224554583#2"/>
    <trip id="veh37" type="veh_passenger" depart="362.65" departLane="best" from="31669748#0" to="138005233#1"/>
    <trip id="veh38" type="veh_passenger" depart="372.45" departLane="best" departSpeed="max" from="78480721#0" to="-35428573#1"/>
    <trip id="veh39" type="veh_passenger" depart="382.25" departLane="best" from="-111979263" to="250745808"/>
    <trip id="veh40" type="veh_passenger" depart="392.05" departLane="best" from="250742433#0" to="139537151#1"/>
    <trip id="veh41" type="veh_passenger" depart="401.85" departLane="best" from="-139500472#4" to="138008954"/>
    <trip id="veh42" type="veh_passenger" depart="411.65" departLane="best" from="-138008965#2" to="656614409#1"/>
    <trip id="veh43" type="veh_passenger" depart="421.45" departLane="best" from="140977288#1" to="125445051#3"/>
    <trip id="veh44" type="veh_passenger" depart="431.25" departLane="best" from="4758403#2" to="358829964#0"/>
    <trip id="veh46" type="veh_passenger" depart="450.86" departLane="best" from="30581979" to="139537160"/>
    <trip id="veh47" type="veh_passenger" depart="460.66" departLane="best" from="-10422679#0" to="137333243"/>
    <trip id="veh48" type="veh_passenger" depart="470.46" departLane="best" departSpeed="max" from="-124620095#1" to="486438093#1"/>
    <trip id="veh49" type="veh_passenger" depart="480.26" departLane="best" from="-407273107#1" to="-317427775#3"/>
    <trip id="veh50" type="veh_passenger" depart="490.06" departLane="best" from="136981218#2" to="-137426321#0"/>
    <trip id="veh51" type="veh_passenger" depart="499.86" departLane="best" from="402211952" to="59293271"/>
    <trip id="veh52" type="veh_passenger" depart="509.66" departLane="best" from="138008956#3" to="139500492"/>
    <trip id="veh53" type="veh_passenger" depart="519.47" departLane="best" from="-137732797#0" to="251114321#0"/>
    <trip id="veh55" type="veh_passenger" depart="539.07" departLane="best" from="139533984" to="140491964#0"/>
    <trip id="veh56" type="veh_passenger" depart="548.87" departLane="best" from="111979264" to="358829964#1"/>
    <trip id="veh57" type="veh_passenger" depart="558.67" departLane="best" from="138005231" to="-672844045#1"/>
    <trip id="veh59" type="veh_passenger" depart="578.27" departLane="best" from="323855393" to="137013054#0"/>
    <trip id="veh60" type="veh_passenger" depart="588.07" departLane="best" from="-98819490#0" to="250738472#1"/>
    <trip id="veh61" type="veh_passenger" depart="597.88" departLane="best" from="138008939#1" to="139534028#0"/>
    <trip id="veh62" type="veh_passenger" depart="607.68" departLane="best" from="139534004#3" to="-819148586"/>
    <trip id="veh64" type="veh_passenger" depart="627.28" departLane="best" from="44426114#2" to="-817586066#1"/>
    <trip id="veh65" type="veh_passenger" depart="637.08" departLane="best" from="137734283#1" to="224554584"/>
    <trip id="veh66" type="veh_passenger" depart="646.88" departLane="best" from="-44426114#0" to="43111667"/>
    <trip id="veh67" type="veh_passenger" depart="656.68" departLane="best" from="38032872#0" to="137686045#2"/>
    <trip id="veh68" type="veh_passenger" depart="666.48" departLane="best" from="-66724473" to="250742405#0"/>
    <trip id="veh69" type="veh_passenger" depart="676.29" departLane="best" from="-38032872#1" to="-140491967#0"/>
    <trip id="veh70" type="veh_passenger" depart="686.09" departLane="best" from="65259652#0" to="140499089"/>
    <trip id="veh71" type="veh_passenger" depart="695.89" departLane="best" from="139500487#1" to="28104630"/>
    <trip id="veh72" type="veh_passenger" depart="705.69" departLane="best" from="31870747#2" to="-386836534"/>
    <trip id="veh73" type="veh_passenger" depart="715.49" departLane="best" departSpeed="max" from="-138008968#1" to="138008939#1"/>
    <trip id="veh74" type="veh_passenger" depart="725.29" departLane="best" from="138005232#0" to="139500472#1"/>
    <trip id="veh75" type="veh_passenger" depart="735.09" departLane="best" from="251114321#0" to="250742426#0"/>
    <trip id="veh76" type="veh_passenger" depart="744.89" departLane="best" from="-38032872#2" to="120548565#1"/>
    <trip id="veh77" type="veh_passenger" depart="754.70" departLane="best" departSpeed="max" from="-283473134#2" to="138008968#1"/>
    <trip id="veh78" type="veh_passenger" depart="764.50" departLane="best" from="138005231" to="136307006#0"/>
    <trip id="veh79" type="veh_passenger" depart="774.30" departLane="best" departSpeed="max" from="-876172765" to="4758403#0"/>
    <trip id="veh80" type="veh_passenger" depart="784.10" departLane="best" from="138008956#1" to="-35428573#1"/>
    <trip id="veh81" type="veh_passenger" depart="793.90" departLane="best" from="140576290#0" to="-137426320"/>
    <trip id="veh82" type="veh_passenger" depart="803.70" departLane="best" from="99220643" to="31870747#4"/>
    <trip id="veh83" type="veh_passenger" depart="813.50" departLane="best" from="78480717#0" to="4758403#4"/>
    <trip id="veh84" type="veh_passenger" depart="823.30" departLane="best" from="358829964#0" to="187736603#1"/>
    <trip id="veh85" type="veh_passenger" depart="833.11" departLane="best" from="139533991#0" to="-69765147"/>
    <trip id="veh86" type="veh_passenger" depart="842.91" departLane="best" from="-137732797#0" to="-137426321#0"/>
    <trip id="veh87" type="veh_passenger" depart="852.71" departLane="best" from="137669890" to="8040336"/>
    <trip id="veh88" type="veh_passenger" depart="862.51" departLane="best" from="111979264" to="251666025"/>
    <trip id="veh89" type="veh_passenger" depart="872.31" departLane="best" from="68911747" to="98819490#0"/>
    <trip id="veh92" type="veh_passenger" depart="901.71" departLane="best" from="78480717#0" to="140977283#0"/>
    <trip id="veh96" type="veh_passenger" depart="940.92" departLane="best" from="138008939#3" to="38032872#4"/>
    <trip id="veh97" type="veh_passenger" depart="950.72" departLane="best" from="-4926092#0" to="-139534004#3"/>
    <trip id="veh98" type="veh_passenger" depart="960.52" departLane="best" departSpeed="max" from="43111670#0" to="111979264"/>
    <trip id="veh99" type="veh_passenger" depart="970.32" departLane="best" from="224554583#1" to="31723299"/>
    <trip id="veh101" type="veh_passenger" depart="989.92" departLane="best" from="140492988#0" to="486438093#1"/>
    <trip id="veh102" type="veh_passenger" depart="999.73" departLane="best" departSpeed="max" from="-35108071#1" to="250742433#0"/>
    <trip id="veh103" type="veh_passenger" depart="1009.53" departLane="best" from="-66724473" to="137732797#0"/>
    <trip id="veh104" type="veh_passenger" depart="1019.33" departLane="best" from="250742428#0" to="136981218#2"/>
    <trip id="veh106" type="veh_passenger" depart="1038.93" departLane="best" from="-137734283#4" to="138017230#0"/>
    <trip id="veh107" type="veh_passenger" depart="1048.73" departLane="best" from="-137852027" to="-69765147"/>
    <trip id="veh108" type="veh_passenger" depart="1058.53" departLane="best" from="111979264" to="486438093#1"/>
    <trip id="veh109" type="veh_passenger" depart="1068.33" departLane="best" from="42360012" to="38032871#2"/>
    <trip id="veh110" type="veh_passenger" depart="1078.14" departLane="best" from="137467889" to="146395786"/>
    <trip id="veh111" type="veh_passenger" depart="1087.94" departLane="best" from="35399400" to="250742418#0"/>
    <trip id="veh112" type="veh_passenger" depart="1097.74" departLane="best" from="250738472#0" to="817586066#0"/>
    <trip id="veh113" type="veh_passenger" depart="1107.54" departLane="best" from="250742421" to="250742421"/>
    <trip id="veh114" type="veh_passenger" depart="1117.34" departLane="best" from="320997150" to="136981218#2"/>
    <trip id="veh115" type="veh_passenger" depart="1127.14" departLane="best" from="250742426#0" to="4886753#3"/>
    <trip id="veh117" type="veh_passenger" depart="1146.74" departLane="best" departSpeed="max" from="-139498481" to="-140491967#3"/>
    <trip id="veh118" type="veh_passenger" depart="1156.55" departLane="best" from="125445051#3" to="187736603#0"/>
    <trip id="veh119" type="veh_passenger" depart="1166.35" departLane="best" departSpeed="max" from="250746855#0" to="-584733220"/>
    <trip id="veh120" type="veh_passenger" depart="1176.15" departLane="best" from="250742405#0" to="125445051#3"/>
    <trip id="veh121" type="veh_passenger" depart="1185.95" departLane="best" from="35801887#1" to="-138008956#1"/>
    <trip id="veh122" type="veh_passenger" depart="1195.75" departLane="best" from="138005232#0" to="136307006#0"/>
    <trip id="veh123" type="veh_passenger" depart="1205.55" departLane="best" from="-10697751#0" to="251114322"/>
    <trip id="veh124" type="veh_passenger" depart="1215.35" departLane="best" from="250742411" to="125445051#0"/>
    <trip id="veh126" type="veh_passenger" depart="1234.96" departLane="best" from="138005233#1" to="-121548429#0"/>
    <trip id="veh127" type="veh_passenger" depart="1244.76" departLane="best" from="-138008937#0" to="38032872#2"/>
    <trip id="veh128" type="veh_passenger" depart="1254.56" departLane="best" from="-44426114#0" to="140491958"/>
    <trip id="veh129" type="veh_passenger" depart="1264.36" departLane="best" from="136981218#2" to="402211952"/>
    <trip id="veh130" type="veh_passenger" depart="1274.16" departLane="best" from="31723298#0" to="35428573#1"/>
    <trip id="veh131" type="veh_passenger" depart="1283.96" departLane="best" departSpeed="max" from="-876172765" to="138008968#0"/>
    <trip id="veh132" type="veh_passenger" depart="1293.76" departLane="best" departSpeed="max" from="31637074" to="38032872#3"/>
    <trip id="veh133" type="veh_passenger" depart="1303.56" departLane="best" from="137733461#1" to="219246155"/>
    <trip id="veh135" type="veh_passenger" depart="1323.17" departLane="best" from="-38032872#5" to="35801887#0"/>
    <trip id="veh136" type="veh_passenger" depart="1332.97" departLane="best" from="31992106" to="38032872#0"/>
    <trip id="veh137" type="veh_passenger" depart="1342.77" departLane="best" from="136815666#2" to="250745832#0"/>
    <trip id="veh138" type="veh_passenger" depart="1352.57" departLane="best" from="-137333242" to="486438093#1"/>
    <trip id="veh139" type="veh_passenger" depart="1362.37" departLane="best" from="31723300" to="35679346#0"/>
    <trip id="veh141" type="veh_passenger" depart="1381.97" departLane="best" departSpeed="max" from="31637074" to="138010954"/>
    <trip id="veh142" type="veh_passenger" depart="1391.78" departLane="best" from="382767154" to="35399400"/>
    <trip id="veh143" type="veh_passenger" depart="1401.58" departLane="best" from="-386836534" to="31668845"/>
    <trip id="veh144" type="veh_passenger" depart="1411.38" departLane="best" from="138017230#0" to="136986693#1"/>
    <trip id="veh145" type="veh_passenger" depart="1421.18" departLane="best" from="136815666#1" to="386836536"/>
    <trip id="veh146" type="veh_passenger" depart="1430.98" departLane="best" from="137333238" to="35679346#0"/>
    <trip id="veh147" type="veh_passenger" depart="1440.78" departLane="best" from="74092230#1" to="136307006#0"/>
    <trip id="veh148" type="veh_passenger" depart="1450.58" departLane="best" from="78480722#0" to="139537151#1"/>
    <trip id="veh150" type="veh_passenger" depart="1470.19" departLane="best" from="78480717#0" to="35428573#2"/>
    <trip id="veh151" type="veh_passenger" depart="1479.99" departLane="best" from="69765152#1" to="-131625166#2"/>
    <trip id="veh152" type="veh_passenger" depart="1489.79" departLane="best" from="-139500472#1" to="138008941#1"/>
    <trip id="veh153" type="veh_passenger" depart="1499.59" departLane="best" from="251114321#0" to="137017167#0"/>
    <trip id="veh154" type="veh_passenger" depart="1509.39" departLane="best" from="250742423" to="139534005#2"/>
    <trip id="veh155" type="veh_passenger" depart="1519.19" departLane="best" from="-891321651#1" to="250742429#0"/>
    <trip id="veh156" type="veh_passenger" depart="1528.99" departLane="best" from="-10422679#1" to="4758403#4"/>
    <trip id="veh159" type="veh_passenger" depart="1558.40" departLane="best" departSpeed="max" from="137426321#0" to="137686045#0"/>
    <trip id="veh160" type="veh_passenger" depart="1568.20" departLane="best" from="-136986693#0" to="320997150"/>
    <trip id="veh161" type="veh_passenger" depart="1578.00" departLane="best" departSpeed="max" from="250746855#0" to="136986689#1"/>
    <trip id="veh162" type="veh_passenger" depart="1587.80" departLane="best" from="136981218#2" to="43785333#0"/>
    <trip id="veh163" type="veh_passenger" depart="1597.60" departLane="best" from="137732797#1" to="136884168#1"/>
    <trip id="veh164" type="veh_passenger" depart="1607.40" departLane="best" departSpeed="max" from="-139534005#2" to="138005233#0"/>
    <trip id="veh165" type="veh_passenger" depart="1617.20" departLane="best" from="-66724454" to="250742413#0"/>
    <trip id="veh166" type="veh_passenger" depart="1627.01" departLane="best" from="137859463#0" to="214802503#2"/>
    <trip id="veh167" type="veh_passenger" depart="1636.81" departLane="best" from="136816609#1" to="140491958"/>
    <trip id="veh168" type="veh_passenger" depart="1646.61" departLane="best" from="-138008965#2" to="140977283#1"/>
    <trip id="veh169" type="veh_passenger" depart="1656.41" departLane="best" from="250742421" to="139498481"/>
    <trip id="veh170" type="veh_passenger" depart="1666.21" departLane="best" from="-138008956#0" to="-69765147"/>
    <trip id="veh171" type="veh_passenger" depart="1676.01" departLane="best" from="139500487#1" to="407273107#2"/>
    <trip id="veh172" type="veh_passenger" depart="1685.81" departLane="best" from="31723298#0" to="283473134#1"/>
    <trip id="veh173" type="veh_passenger" depart="1695.61" departLane="best" from="138008956#2" to="139534005#2"/>
    <trip id="veh175" type="veh_passenger" depart="1715.22" departLane="best" from="250742428#0" to="-819148586"/>
    <trip id="veh176" type="veh_passenger" depart="1725.02" departLane="best" from="317427775#2" to="-135417037"/>
    <trip id="veh177" type="veh_passenger" depart="1734.82" departLane="best" from="-793024351#0" to="139500473"/>
    <trip id="veh178" type="veh_passenger" depart="1744.62" departLane="best" from="137859463#0" to="224554583#3"/>
    <trip id="veh180" type="veh_passenger" depart="1764.22" departLane="best" from="250742423" to="10697751#2"/>
    <trip id="veh181" type="veh_passenger" depart="1774.02" departLane="best" departSpeed="max" from="-139498481" to="138008934#2"/>
    <trip id="veh182" type="veh_passenger" depart="1783.83" departLane="best" from="-187264126#2" to="66724474"/>
    <trip id="veh184" type="veh_passenger" depart="1803.43" departLane="best" departSpeed="max" from="-876172765" to="323855392#0"/>
    <trip id="veh185" type="veh_passenger" depart="1813.23" departLane="best" from="30581979" to="30581979"/>
    <trip id="veh186" type="veh_passenger" depart="1823.03" departLane="best" from="250742427#0" to="-819148586"/>
    <trip id="veh187" type="veh_passenger" depart="1832.83" departLane="best" from="224554583#1" to="638509702#0"/>
    <trip id="veh188" type="veh_passenger" depart="1842.63" departLane="best" departSpeed="max" from="43111670#0" to="214802503#1"/>
    <trip id="veh189" type="veh_passenger" depart="1852.43" departLane="best" departSpeed="max" from="250746855#0" to="139534001"/>
    <trip id="veh190" type="veh_passenger" depart="1862.24" departLane="best" departSpeed="max" from="346640056" to="140491958"/>
    <trip id="veh191" type="veh_passenger" depart="1872.04" departLane="best" departSpeed="max" from="43111670#0" to="250746849#0"/>
    <trip id="veh192" type="veh_passenger" depart="1881.84" departLane="best" from="139533984" to="124620095#0"/>
    <trip id="veh193" type="veh_passenger" depart="1891.64" departLane="best" from="-8040336" to="225689984#2"/>
    <trip id="veh194" type="veh_passenger" depart="1901.44" departLane="best" from="30581981" to="139534029#3"/>
    <trip id="veh195" type="veh_passenger" depart="1911.24" departLane="best" from="250739906#0" to="136307006#0"/>
    <trip id="veh196" type="veh_passenger" depart="1921.04" departLane="best" from="-138008939#0" to="136816609#0"/>
    <trip id="veh197" type="veh_passenger" depart="1930.84" departLane="best" from="125445051#0" to="137333239"/>
    <trip id="veh199" type="veh_passenger" depart="1950.45" departLane="best" from="137733461#2" to="139537160"/>
    <trip id="veh200" type="veh_passenger" depart="1960.25" departLane="best" from="137860348#0" to="-672844045#0"/>
    <trip id="veh201" type="veh_passenger" depart="1970.05" departLane="best" from="214802503#2" to="250742425#2"/>
    <trip id="veh202" type="veh_passenger" depart="1979.85" departLane="best" from="137669893#1" to="-111979263"/>
    <trip id="veh203" type="veh_passenger" depart="1989.65" departLane="best" from="137354137" to="35801887#0"/>
    <trip id="veh204" type="veh_passenger" depart="1999.45" departLane="best" from="366660860#0" to="656614409#0"/>
    <trip id="veh206" type="veh_passenger" depart="2019.05" departLane="best" from="-140499096" to="187264126#7"/>
    <trip id="veh207" type="veh_passenger" depart="2028.86" departLane="best" from="-38032874" to="8040336"/>
    <trip id="veh208" type="veh_passenger" depart="2038.66" departLane="best" from="138008937#1" to="136815666#1"/>
    <trip id="veh209" type="veh_passenger" depart="2048.46" departLane="best" from="-137341269#1" to="250742415"/>
    <trip id="veh210" type="veh_passenger" depart="2058.26" departLane="best" from="137733460" to="187736603#0"/>
    <trip id="veh212" type="veh_passenger" depart="2077.86" departLane="best" from="250739904" to="136815665"/>
    <trip id="veh213" type="veh_passenger" depart="2087.66" departLane="best" from="-137730515#0" to="-140499088#1"/>
    <trip id="veh214" type="veh_passenger" depart="2097.46" departLane="best" from="136816609#1" to="249757265#0"/>
    <trip id="veh215" type="veh_passenger" depart="2107.27" departLane="best" departSpeed="max" from="-139537151#1" to="139498481"/>
    <trip id="veh217" type="veh_passenger" depart="2126.87" departLane="best" from="30387959#0" to="137686045#2"/>
    <trip id="veh218" type="veh_passenger" depart="2136.67" departLane="best" departSpeed="max" from="289759704#0" to="317427775#3"/>
    <trip id="veh219" type="veh_passenger" depart="2146.47" departLane="best" departSpeed="max" from="-876172765" to="137852027"/>
    <trip id="veh220" type="veh_passenger" depart="2156.27" departLane="best" departSpeed="max" from="-124620095#1" to="139537160"/>
    <trip id="veh222" type="veh_passenger" depart="2175.87" departLane="best" from="250742418#0" to="251114323#0"/>
    <trip id="veh223" type="veh_passenger" depart="2185.68" departLane="best" from="250742426#0" to="35801887#0"/>
    <trip id="veh224" type="veh_passenger" depart="2195.48" departLane="best" departSpeed="max" from="672844045#0" to="4758403#0"/>
    <trip id="veh225" type="veh_passenger" depart="2205.28" departLane="best" departSpeed="max" from="-124620095#1" to="140499096"/>
    <trip id="veh226" type="veh_passenger" depart="2215.08" departLane="best" departSpeed="max" from="-139534005#2" to="250742405#0"/>
    <trip id="veh227" type="veh_passenger" depart="2224.88" departLane="best" from="179786171" to="793024351#1"/>
    <trip id="veh229" type="veh_passenger" depart="2244.48" departLane="best" from="-140977287#1" to="199278540#0"/>
    <trip id="veh230" type="veh_passenger" depart="2254.28" departLane="best" departSpeed="max" from="289759704#0" to="-139500472#4"/>
    <trip id="veh231" type="veh_passenger" depart="2264.09" departLane="best" from="320997150" to="678493331#1"/>
    <trip id="veh232" type="veh_passenger" depart="2273.89" departLane="best" from="-139500472#1" to="-135417037"/>
    <trip id="veh233" type="veh_passenger" depart="2283.69" departLane="best" departSpeed="max" from="250746855#0" to="137730515#1"/>
    <trip id="veh234" type="veh_passenger" depart="2293.49" departLane="best" from="250745810#0" to="224554583#2"/>
    <trip id="veh235" type="veh_passenger" depart="2303.29" departLane="best" from="-138010953#1" to="251114322"/>
    <trip id="veh236" type="veh_passenger" depart="2313.09" departLane="best" from="358829964#1" to="187264126#4"/>
    <trip id="veh237" type="veh_passenger" depart="2322.89" departLane="best" departSpeed="max" from="31637074" to="137354137"/>
    <trip id="veh238" type="veh_passenger" depart="2332.69" departLane="best" from="138005233#1" to="137669893#1"/>
    <trip id="veh239" type="veh_passenger" depart="2342.50" departLane="best" from="366660860#0" to="137346400"/>
    <trip id="veh240" type="veh_passenger" depart="2352.30" departLane="best" from="358829964#0" to="137860348#0"/>
    <trip id="veh241" type="veh_passenger" depart="2362.10" departLane="best" departSpeed="max" from="-139498481" to="66724474"/>
    <trip id="veh242" type="veh_passenger" depart="2371.90" departLane="best" from="250742405#0" to="31723300"/>
    <trip id="veh243" type="veh_passenger" depart="2381.70" departLane="best" departSpeed="max" from="250746855#0" to="138008954"/>
    <trip id="veh244" type="veh_passenger" depart="2391.50" departLane="best" from="251114321#1" to="678493331#1"/>
    <trip id="veh245" type="veh_passenger" depart="2401.30" departLane="best" from="121548429#1" to="31057775"/>
    <trip id="veh247" type="veh_passenger" depart="2420.91" departLane="best" from="138008937#1" to="250745832#0"/>
    <trip id="veh248" type="veh_passenger" depart="2430.71" departLane="best" from="121548429#0" to="323855394#0"/>
    <trip id="veh249" type="veh_passenger" depart="2440.51" departLane="best" departSpeed="max" from="346640056" to="-138008939#1"/>
    <trip id="veh250" type="veh_passenger" depart="2450.31" departLane="best" from="43110747" to="10697751#3"/>
    <trip id="veh251" type="veh_passenger" depart="2460.11" departLane="best" from="-139500472#2" to="214802502"/>
    <trip id="veh252" type="veh_passenger" depart="2469.91" departLane="best" from="137669890" to="136815666#1"/>
    <trip id="veh253" type="veh_passenger" depart="2479.71" departLane="best" from="358829964#1" to="38032872#0"/>
    <trip id="veh254" type="veh_passenger" depart="2489.51" departLane="best" from="137346392" to="38032871#2"/>
    <trip id="veh256" type="veh_passenger" depart="2509.12" departLane="best" departSpeed="max" from="-10697751#3" to="59293271"/>
    <trip id="veh258" type="veh_passenger" depart="2528.72" departLane="best" from="139534004#0" to="251114321#0"/>
    <trip id="veh259" type="veh_passenger" depart="2538.52" departLane="best" from="250745810#0" to="250738472#0"/>
    <trip id="veh260" type="veh_passenger" depart="2548.32" departLane="best" from="139534004#2" to="289759705"/>
    <trip id="veh261" type="veh_passenger" depart="2558.12" departLane="best" from="-138008965#1" to="-817586066#1"/>
    <trip id="veh262" type="veh_passenger" depart="2567.92" departLane="best" from="214802503#1" to="139500473"/>
    <trip id="veh263" type="veh_passenger" depart="2577.73" departLane="best" departSpeed="max" from="-140492996" to="138008934#2"/>
    <trip id="veh264" type="veh_passenger" depart="2587.53" departLane="best" departSpeed="max" from="289759704#0" to="137346386"/>
    <trip id="veh265" type="veh_passenger" depart="2597.33" departLane="best" departSpeed="max" from="-316084252" to="139534004#3"/>
    <trip id="veh267" type="veh_passenger" depart="2616.93" departLane="best" from="-249757266#1" to="-69765152#2"/>
    <trip id="veh269" type="veh_passenger" depart="2636.53" departLane="best" departSpeed="max" from="78480721#0" to="139534036"/>
    <trip id="veh270" type="veh_passenger" depart="2646.33" departLane="best" departSpeed="max" from="135295398#0" to="-138008964#3"/>
    <trip id="veh271" type="veh_passenger" depart="2656.14" departLane="best" from="-187264126#5" to="-131625166#1"/>
    <trip id="veh273" type="veh_passenger" depart="2675.74" departLane="best" departSpeed="max" from="78480721#0" to="-140491967#3"/>
    <trip id="veh275" type="veh_passenger" depart="2695.34" departLane="best" from="38032878#1" to="139533984"/>
    <trip id="veh277" type="veh_passenger" depart="2714.94" departLane="best" from="139500482#0" to="138008960#1"/>
    <trip id="veh278" type="veh_passenger" depart="2724.74" departLane="best" from="199278540#0" to="-137426320"/>
    <trip id="veh279" type="veh_passenger" depart="2734.55" departLane="best" from="66724473" to="139500482#2"/>
    <trip id="veh280" type="veh_passenger" depart="2744.35" departLane="best" from="323855392#0" to="137733461#1"/>
    <trip id="veh281" type="veh_passenger" depart="2754.15" departLane="best" from="-137999793" to="224554583#3"/>
    <trip id="veh282" type="veh_passenger" depart="2763.95" departLane="best" from="-137469979#1" to="-140499088#0"/>
    <trip id="veh283" type="veh_passenger" depart="2773.75" departLane="best" from="448480300" to="136986690"/>
    <trip id="veh284" type="veh_passenger" depart="2783.55" departLane="best" from="30581981" to="191712389"/>
    <trip id="veh285" type="veh_passenger" depart="2793.35" departLane="best" from="31669748#0" to="4926092#1"/>
    <trip id="veh286" type="veh_passenger" depart="2803.15" departLane="best" from="140491967#3" to="138008968#1"/>
    <trip id="veh287" type="veh_passenger" depart="2812.96" departLane="best" from="138008956#0" to="35428572"/>
    <trip id="veh288" type="veh_passenger" depart="2822.76" departLane="best" from="868093102" to="136986693#1"/>