<?xml version="1.0" encoding="UTF-8"?>

<!-- generated on 2023-01-20 18:56:38 by Eclipse SUMO netedit Version v1_15_0+1445-9ed6055add5
-->

<routes xmlns:xsi="http://www.w3.org/2001/XMLSchema-instance" xsi:noNamespaceSchemaLocation="http://sumo.dlr.de/xsd/routes_file.xsd">
    <!-- VTypes -->
    <vType id="veh_passenger" vClass="passenger"/>
    <!-- Routes -->
    <route id="bikepath" edges="137354141 366341398#0 366341398#1 224554586 224554587 366342134#0 366342134#1 -434375935#4 -434375935#3 -434375935#2 -434375935#0 -434375946#1 -434375946#0 -137354144#3 -137354144#1 -137354144#0 -137354153 137354154#0 137354154#1"/>
    <flow id="f_1" type="vehDist" begin="0.00" route="bikepath" end="14400.00" number="300"/>
    <!-- Vehicles, persons and containers (sorted by depart) -->
    <trip id="veh0" type="veh_passenger" depart="0.00" departLane="best" from="224554583#3" to="-137333238"/>
    <trip id="veh3" type="veh_passenger" depart="32.89" departLane="best" from="137859463#0" to="139500484#2"/>
    <trip id="veh4" type="veh_passenger" depart="43.85" departLane="best" from="137732795#2" to="-137346395#2"/>
    <trip id="veh5" type="veh_passenger" depart="54.82" departLane="best" departSpeed="max" from="-35108071#1" to="-140491967#4"/>
    <trip id="veh6" type="veh_passenger" depart="65.78" departLane="best" from="136879211#0" to="4758403#1"/>
    <trip id="veh8" type="veh_passenger" depart="87.71" departLane="best" from="-31637079#0" to="-121548429#0"/>
    <trip id="veh9" type="veh_passenger" depart="98.67" departLane="best" from="136828909" to="-187736603#1"/>
    <trip id="veh10" type="veh_passenger" depart="109.63" departLane="best" from="70917026#1" to="137467893#0"/>
    <trip id="veh11" type="veh_passenger" depart="120.60" departLane="best" from="-139500472#5" to="139534012"/>
    <trip id="veh12" type="veh_passenger" depart="131.56" departLane="best" from="358829964#0" to="208040945#1"/>
    <trip id="veh13" type="veh_passenger" depart="142.52" departLane="best" from="316084246" to="250745834#2"/>
    <trip id="veh14" type="veh_passenger" depart="153.49" departLane="best" departSpeed="max" from="140491967#0" to="78480717#0"/>
    <trip id="veh16" type="veh_passenger" depart="175.41" departLane="best" from="-341006980" to="219246155#1"/>
    <trip id="veh17" type="veh_passenger" depart="186.38" departLane="best" from="38032878#0" to="170473165#1"/>
    <trip id="veh18" type="veh_passenger" depart="197.34" departLane="best" from="250742417" to="137686044#1"/>
    <trip id="veh19" type="veh_passenger" depart="208.30" departLane="best" from="-38032872#2" to="136828909"/>
    <trip id="veh20" type="veh_passenger" depart="219.27" departLane="best" from="-138008965#2" to="904479824#0"/>
    <trip id="veh21" type="veh_passenger" depart="230.23" departLane="best" departSpeed="max" from="-139500484#7" to="136307006#3"/>
    <trip id="veh22" type="veh_passenger" depart="241.19" departLane="best" from="137346398#0" to="69765152#3"/>
    <trip id="veh24" type="veh_passenger" depart="263.12" departLane="best" from="23113734" to="214802502#2"/>
    <trip id="veh25" type="veh_passenger" depart="274.08" departLane="best" from="-140977283#1" to="250745834#2"/>
    <trip id="veh26" type="veh_passenger" depart="285.05" departLane="best" departSpeed="max" from="-140620407" to="43785333#0"/>
    <trip id="veh27" type="veh_passenger" depart="296.01" departLane="best" from="250528061#0" to="249757265#2"/>
    <trip id="veh28" type="veh_passenger" depart="306.97" departLane="best" from="140499088#6" to="250742418#0"/>
    <trip id="veh30" type="veh_passenger" depart="328.90" departLane="best" from="132481042#1" to="135284800#1"/>
    <trip id="veh31" type="veh_passenger" depart="339.86" departLane="best" departSpeed="max" from="-316084252" to="672327424"/>
    <trip id="veh32" type="veh_passenger" depart="350.82" departLane="best" from="43111670#1" to="137341269#0"/>
    <trip id="veh33" type="veh_passenger" depart="361.79" departLane="best" from="249757266#0" to="138008934#2"/>
    <trip id="veh34" type="veh_passenger" depart="372.75" departLane="best" from="5063842#1" to="139534004#0"/>
    <trip id="veh35" type="veh_passenger" depart="383.71" departLane="best" from="-66724473" to="115593016#1"/>
    <trip id="veh36" type="veh_passenger" depart="394.68" departLane="best" from="140500580#2" to="251666025#0"/>
    <trip id="veh37" type="veh_passenger" depart="405.64" departLane="best" from="-140505670#0" to="486438093#10"/>
    <trip id="veh38" type="veh_passenger" depart="416.60" departLane="best" from="137469979#1" to="-751134715#0"/>
    <trip id="veh39" type="veh_passenger" depart="427.57" departLane="best" from="944842708#1" to="-140492996#2"/>
    <trip id="veh40" type="veh_passenger" depart="438.53" departLane="best" from="-139500472#2" to="137686045#2"/>
    <trip id="veh42" type="veh_passenger" depart="460.46" departLane="best" from="29209069#3" to="139498481#0"/>
    <trip id="veh43" type="veh_passenger" depart="471.42" departLane="best" departSpeed="max" from="-137999797" to="137860348#0"/>
    <trip id="veh44" type="veh_passenger" depart="482.38" departLane="best" from="944842708#0" to="140500582#2"/>
    <trip id="veh45" type="veh_passenger" depart="493.35" departLane="best" from="751134715#3" to="386836535#1"/>
    <trip id="veh46" type="veh_passenger" depart="504.31" departLane="best" from="131625166#3" to="250745818"/>
    <trip id="veh47" type="veh_passenger" depart="515.27" departLane="best" from="250738472#0" to="140500590#3"/>
    <trip id="veh49" type="veh_passenger" depart="537.20" departLane="best" from="138008934#4" to="69765150"/>
    <trip id="veh50" type="veh_passenger" depart="548.16" departLane="best" from="43111669#5" to="132481044#0"/>
    <trip id="veh51" type="veh_passenger" depart="559.13" departLane="best" from="139533984" to="36843488#1"/>
    <trip id="veh52" type="veh_passenger" depart="570.09" departLane="best" from="-879775391" to="407273107#3"/>
    <trip id="veh53" type="veh_passenger" depart="581.05" departLane="best" from="10697751#1" to="249757265#2"/>
    <trip id="veh54" type="veh_passenger" depart="592.02" departLane="best" from="179786171" to="-187264126#4"/>
    <trip id="veh55" type="veh_passenger" depart="602.98" departLane="best" from="250746856#1" to="140500590#4"/>
    <trip id="veh56" type="veh_passenger" depart="613.94" departLane="best" from="132481042#2" to="140500584#5"/>
    <trip id="veh57" type="veh_passenger" depart="624.91" departLane="best" from="-10422679#0" to="137346403"/>
    <trip id="veh58" type="veh_passenger" depart="635.87" departLane="best" from="-136813522#1" to="59293271"/>
    <trip id="veh59" type="veh_passenger" depart="646.83" departLane="best" from="43111670#3" to="35399400#1"/>
    <trip id="veh60" type="veh_passenger" depart="657.80" departLane="best" from="138005233#1" to="-137999793#1"/>
    <trip id="veh62" type="veh_passenger" depart="679.72" departLane="best" from="-138008941#1" to="25329570"/>
    <trip id="veh63" type="veh_passenger" depart="690.69" departLane="best" from="250746857#0" to="-140500584#0"/>
    <trip id="veh64" type="veh_passenger" depart="701.65" departLane="best" from="138794627#1" to="140576290#0"/>
    <trip id="veh65" type="veh_passenger" depart="712.61" departLane="best" from="66724473" to="43111668"/>
    <trip id="veh66" type="veh_passenger" depart="723.58" departLane="best" from="137732797#1" to="70917026#1"/>
    <trip id="veh67" type="veh_passenger" depart="734.54" departLane="best" from="140491967#2" to="250745834#2"/>
    <trip id="veh68" type="veh_passenger" depart="745.50" departLane="best" from="-310929449" to="137333239"/>
    <trip id="veh69" type="veh_passenger" depart="756.47" departLane="best" from="904479824#1" to="250738473#0"/>
    <trip id="veh70" type="veh_passenger" depart="767.43" departLane="best" departSpeed="max" from="137859465#0" to="-140499088#4"/>
    <trip id="veh71" type="veh_passenger" depart="778.39" departLane="best" departSpeed="max" from="-140491956" to="793024351#0"/>
    <trip id="veh73" type="veh_passenger" depart="800.32" departLane="best" from="-38032872#6" to="-751134715#3"/>
    <trip id="veh75" type="veh_passenger" depart="822.25" departLane="best" from="-38032872#4" to="486438093#6"/>
    <trip id="veh76" type="veh_passenger" depart="833.21" departLane="best" from="-38032872#5" to="138008964#4"/>
    <trip id="veh77" type="veh_passenger" depart="844.17" departLane="best" departSpeed="max" from="-392416866#4" to="250742417"/>
    <trip id="veh78" type="veh_passenger" depart="855.14" departLane="best" from="317427775#3" to="140500585#2"/>
    <trip id="veh79" type="veh_passenger" depart="866.10" departLane="best" from="656614409#2" to="-142433484#2"/>
    <trip id="veh80" type="veh_passenger" depart="877.06" departLane="best" from="138010955#3" to="30387959#2"/>
    <trip id="veh81" type="veh_passenger" depart="888.02" departLane="best" from="316084248#1" to="-407273107#1"/>
    <trip id="veh82" type="veh_passenger" depart="898.99" departLane="best" from="-139500484#1" to="139500472#9"/>
    <trip id="veh83" type="veh_passenger" depart="909.95" departLane="best" from="137732800" to="139534024"/>
    <trip id="veh84" type="veh_passenger" depart="920.91" departLane="best" from="250745807#0" to="250742421"/>
    <trip id="veh85" type="veh_passenger" depart="931.88" departLane="best" from="8040337" to="139537146#0"/>
    <trip id="veh86" type="veh_passenger" depart="942.84" departLane="best" from="137469983#2" to="137467895#0"/>
    <trip id="veh87" type="veh_passenger" depart="953.80" departLane="best" from="38032878#0" to="121548429#1"/>
    <trip id="veh88" type="veh_passenger" depart="964.77" departLane="best" departSpeed="max" from="-22991502" to="139500492#0"/>
    <trip id="veh89" type="veh_passenger" depart="975.73" departLane="best" from="137732795#2" to="136307006#3"/>
    <trip id="veh90" type="veh_passenger" depart="986.69" departLane="best" from="-43257576#5" to="55141163#0"/>
    <trip id="veh91" type="veh_passenger" depart="997.66" departLane="best" from="137860348#2" to="386836535#1"/>
    <trip id="veh92" type="veh_passenger" depart="1008.62" departLane="best" from="140499086#1" to="137730515#0"/>
    <trip id="veh93" type="veh_passenger" depart="1019.58" departLane="best" from="98819490#1" to="35428580#1"/>
    <trip id="veh94" type="veh_passenger" depart="1030.55" departLane="best" departSpeed="max" from="751134715#0" to="56199987#2"/>
    <trip id="veh95" type="veh_passenger" depart="1041.51" departLane="best" from="358829964#1" to="31349426#1"/>
    <trip id="veh96" type="veh_passenger" depart="1052.47" departLane="best" from="139500479" to="70917026#4"/>
    <trip id="veh97" type="veh_passenger" depart="1063.44" departLane="best" from="137469983#0" to="-138008937#0"/>
    <trip id="veh98" type="veh_passenger" depart="1074.40" departLane="best" from="137426320" to="832676030#1"/>
    <trip id="veh100" type="veh_passenger" depart="1096.33" departLane="best" from="138008937#1" to="139498481#2"/>
    <trip id="veh101" type="veh_passenger" depart="1107.29" departLane="best" from="70917026#1" to="9231888"/>
    <trip id="veh102" type="veh_passenger" depart="1118.25" departLane="best" from="140499088#4" to="250745817#2"/>
    <trip id="veh103" type="veh_passenger" depart="1129.22" departLane="best" from="-140500590#3" to="136884168#1"/>
    <trip id="veh104" type="veh_passenger" depart="1140.18" departLane="best" departSpeed="max" from="751134715#0" to="175350975"/>
    <trip id="veh105" type="veh_passenger" depart="1151.14" departLane="best" from="140492988#2" to="251114321#1"/>
    <trip id="veh106" type="veh_passenger" depart="1162.11" departLane="best" from="-137734283#0" to="179786171"/>
    <trip id="veh107" type="veh_passenger" depart="1173.07" departLane="best" from="-138008968#0" to="-386836535#1"/>
    <trip id="veh109" type="veh_passenger" depart="1195.00" departLane="best" from="-392416866#2" to="-140499088#5"/>
    <trip id="veh110" type="veh_passenger" depart="1205.96" departLane="best" departSpeed="max" from="43684665" to="115593016#1"/>
    <trip id="veh112" type="veh_passenger" depart="1227.89" departLane="best" from="137732794#1" to="179786171"/>
    <trip id="veh114" type="veh_passenger" depart="1249.81" departLane="best" departSpeed="max" from="-310929450#2" to="250745817#0"/>
    <trip id="veh115" type="veh_passenger" depart="1260.78" departLane="best" departSpeed="max" from="-392416866#4" to="138008934#3"/>
    <trip id="veh116" type="veh_passenger" depart="1271.74" departLane="best" departSpeed="max" from="250738470#0" to="136981218#0"/>
    <trip id="veh117" type="veh_passenger" depart="1282.70" departLane="best" from="132481042#1" to="251114323#0"/>
    <trip id="veh118" type="veh_passenger" depart="1293.67" departLane="best" from="138008956#4" to="139534001"/>
    <trip id="veh119" type="veh_passenger" depart="1304.63" departLane="best" from="-138008960#0" to="70917026#3"/>
    <trip id="veh121" type="veh_passenger" depart="1326.56" departLane="best" from="137346396" to="249757266#0"/>
    <trip id="veh122" type="veh_passenger" depart="1337.52" departLane="best" from="35399400#0" to="250745813#1"/>
    <trip id="veh123" type="veh_passenger" depart="1348.48" departLane="best" from="187264126#2" to="854252429#1"/>
    <trip id="veh124" type="veh_passenger" depart="1359.45" departLane="best" from="249757265#2" to="124620095#0"/>
    <trip id="veh125" type="veh_passenger" depart="1370.41" departLane="best" from="31870747#1" to="136981218#0"/>
    <trip id="veh126" type="veh_passenger" depart="1381.37" departLane="best" departSpeed="max" from="250736726#0" to="66724474"/>
    <trip id="veh127" type="veh_passenger" depart="1392.34" departLane="best" from="-140492996#2" to="-140499088#0"/>
    <trip id="veh128" type="veh_passenger" depart="1403.30" departLane="best" from="-139534005#1" to="140620407"/>
    <trip id="veh129" type="veh_passenger" depart="1414.26" departLane="best" departSpeed="max" from="68911749" to="208040945#1"/>
    <trip id="veh130" type="veh_passenger" depart="1425.23" departLane="best" from="250742427#0" to="5183858"/>
    <trip id="veh131" type="veh_passenger" depart="1436.19" departLane="best" from="219246156#1" to="132481044#1"/>
    <trip id="veh132" type="veh_passenger" depart="1447.15" departLane="best" from="139500482#1" to="486438093#6"/>
    <trip id="veh133" type="veh_passenger" depart="1458.12" departLane="best" from="358829964#0" to="139534004#2"/>
    <trip id="veh134" type="veh_passenger" depart="1469.08" departLane="best" from="137732800" to="136307006#1"/>
    <trip id="veh135" type="veh_passenger" depart="1480.04" departLane="best" departSpeed="max" from="-10697751#4" to="289759704#3"/>
    <trip id="veh136" type="veh_passenger" depart="1491.00" departLane="best" from="224554583#1" to="251666025#0"/>
    <trip id="veh137" type="veh_passenger" depart="1501.97" departLane="best" from="250745817#0" to="136986689#1"/>
    <trip id="veh138" type="veh_passenger" depart="1512.93" departLane="best" from="137734283#1" to="-131625166#1"/>
    <trip id="veh139" type="veh_passenger" depart="1523.89" departLane="best" from="-138008960#1" to="43257576#6"/>
    <trip id="veh140" type="veh_passenger" depart="1534.86" departLane="best" from="486438093#2" to="140505670#0"/>
    <trip id="veh141" type="veh_passenger" depart="1545.82" departLane="best" from="35399400#0" to="176476146#1"/>
    <trip id="veh142" type="veh_passenger" depart="1556.78" departLane="best" from="138005233#1" to="486438093#10"/>
    <trip id="veh143" type="veh_passenger" depart="1567.75" departLane="best" from="30387959#2" to="-382767154"/>
    <trip id="veh144" type="veh_passenger" depart="1578.71" departLane="best" from="-4758403#1" to="-69765152#4"/>
    <trip id="veh145" type="veh_passenger" depart="1589.67" departLane="best" from="-43257576#5" to="139537151#0"/>
    <trip id="veh146" type="veh_passenger" depart="1600.64" departLane="best" from="251666025#2" to="432900021#1"/>
    <trip id="veh147" type="veh_passenger" depart="1611.60" departLane="best" from="137669893#1" to="223307729#0"/>
    <trip id="veh148" type="veh_passenger" depart="1622.56" departLane="best" from="-140500590#2" to="59293271"/>
    <trip id="veh149" type="veh_passenger" depart="1633.53" departLane="best" from="-386836535#1" to="78480717#1"/>
    <trip id="veh150" type="veh_passenger" depart="1644.49" departLane="best" from="31668845" to="43257576#3"/>
    <trip id="veh151" type="veh_passenger" depart="1655.45" departLane="best" from="-136813522#0" to="633718362#0"/>
    <trip id="veh152" type="veh_passenger" depart="1666.42" departLane="best" from="31057775#0" to="392416866#2"/>
    <trip id="veh153" type="veh_passenger" depart="1677.38" departLane="best" from="868093102" to="135284800#1"/>
    <trip id="veh154" type="veh_passenger" depart="1688.34" departLane="best" from="289759704#3" to="-140491967#1"/>
    <trip id="veh155" type="veh_passenger" depart="1699.31" departLane="best" from="-138008956#2" to="137011588"/>
    <trip id="veh156" type="veh_passenger" depart="1710.27" departLane="best" from="30387959#0" to="-82239698#1"/>
    <trip id="veh157" type="veh_passenger" depart="1721.23" departLane="best" from="136815666#1" to="43257576#0"/>
    <trip id="veh159" type="veh_passenger" depart="1743.16" departLane="best" departSpeed="max" from="751134715#0" to="136307006#4"/>
    <trip id="veh160" type="veh_passenger" depart="1754.12" departLane="best" departSpeed="max" from="224842143#0" to="138008939#3"/>
    <trip id="veh161" type="veh_passenger" depart="1765.09" departLane="best" from="78480720#1" to="140500590#2"/>
    <trip id="veh162" type="veh_passenger" depart="1776.05" departLane="best" from="66724474" to="-140499088#0"/>
    <trip id="veh163" type="veh_passenger" depart="1787.01" departLane="best" from="751134715#3" to="36843488#1"/>
    <trip id="veh164" type="veh_passenger" depart="1797.98" departLane="best" from="74092230#0" to="135284800#1"/>
    <trip id="veh165" type="veh_passenger" depart="1808.94" departLane="best" departSpeed="max" from="-139534005#2" to="139500479"/>
    <trip id="veh166" type="veh_passenger" depart="1819.90" departLane="best" from="250742433#0" to="137333243"/>
    <trip id="veh168" type="veh_passenger" depart="1841.83" departLane="best" from="-137467892#2" to="169386944"/>
    <trip id="veh169" type="veh_passenger" depart="1852.79" departLane="best" from="-4926092#0" to="250745813#2"/>
    <trip id="veh170" type="veh_passenger" depart="1863.76" departLane="best" from="-10697751#0" to="56199987#0"/>
    <trip id="veh171" type="veh_passenger" depart="1874.72" departLane="best" departSpeed="max" from="140491967#0" to="250745818"/>
    <trip id="veh172" type="veh_passenger" depart="1885.68" departLane="best" from="250745817#1" to="250742418#0"/>
    <trip id="veh173" type="veh_passenger" depart="1896.65" departLane="best" from="-137341269#0" to="-138008964#3"/>
    <trip id="veh175" type="veh_passenger" depart="1918.57" departLane="best" from="131625166#4" to="36843488#1"/>
    <trip id="veh176" type="veh_passenger" depart="1929.54" departLane="best" from="250742428#0" to="136981218#0"/>
    <trip id="veh177" type="veh_passenger" depart="1940.50" departLane="best" from="-140491961#0" to="138017230#2"/>
    <trip id="veh179" type="veh_passenger" depart="1962.43" departLane="best" from="486438093#1" to="219246154"/>
    <trip id="veh180" type="veh_passenger" depart="1973.39" departLane="best" from="-137852026" to="-175351095"/>
    <trip id="veh181" type="veh_passenger" depart="1984.35" departLane="best" from="249757266#0" to="139534005#2"/>
    <trip id="veh182" type="veh_passenger" depart="1995.32" departLane="best" from="868093102" to="70917026#4"/>
    <trip id="veh183" type="veh_passenger" depart="2006.28" departLane="best" from="138010955#3" to="486438093#10"/>
    <trip id="veh184" type="veh_passenger" depart="2017.24" departLane="best" from="30387959#2" to="317427775#2"/>
    <trip id="veh185" type="veh_passenger" depart="2028.21" departLane="best" from="-138010953#1" to="-140499088#1"/>
    <trip id="veh186" type="veh_passenger" depart="2039.17" departLane="best" from="219246155#1" to="-137467892#2"/>
    <trip id="veh187" type="veh_passenger" depart="2050.13" departLane="best" from="31992106" to="251114322"/>
    <trip id="veh188" type="veh_passenger" depart="2061.09" departLane="best" departSpeed="max" from="250738470#0" to="793024351#0"/>
    <trip id="veh189" type="veh_passenger" depart="2072.06" departLane="best" departSpeed="max" from="-283473134#6" to="-136986693#0"/>
    <trip id="veh190" type="veh_passenger" depart="2083.02" departLane="best" from="-137728811#0" to="225689984#3"/>
    <trip id="veh191" type="veh_passenger" depart="2093.98" departLane="best" from="-283473134#1" to="250745808"/>
    <trip id="veh192" type="veh_passenger" depart="2104.95" departLane="best" from="-139500484#6" to="1109747991"/>
    <trip id="veh193" type="veh_passenger" depart="2115.91" departLane="best" from="250528061#0" to="115593016#1"/>
    <trip id="veh194" type="veh_passenger" depart="2126.87" departLane="best" from="250745833#0" to="289759704#1"/>
    <trip id="veh195" type="veh_passenger" depart="2137.84" departLane="best" from="-139534005#0" to="139498481#2"/>
    <trip id="veh197" type="veh_passenger" depart="2159.76" departLane="best" from="139534029#0" to="137730512"/>
    <trip id="veh199" type="veh_passenger" depart="2181.69" departLane="best" from="250738467" to="137860348#0"/>
    <trip id="veh201" type="veh_passenger" depart="2203.62" departLane="best" from="137859463#0" to="217881072#1"/>
    <trip id="veh202" type="veh_passenger" depart="2214.58" departLane="best" from="250742428#0" to="-140491967#3"/>
    <trip id="veh204" type="veh_passenger" depart="2236.51" departLane="best" from="138017230#2" to="-131625166#4"/>
    <trip id="veh205" type="veh_passenger" depart="2247.47" departLane="best" from="-43257576#1" to="249757264#1"/>
    <trip id="veh206" type="veh_passenger" depart="2258.43" departLane="best" from="250746857#0" to="140500580#0"/>
    <trip id="veh207" type="veh_passenger" depart="2269.40" departLane="best" from="219246153#0" to="135309540#1"/>
    <trip id="veh208" type="veh_passenger" depart="2280.36" departLane="best" from="138008964#3" to="136816609#0"/>
    <trip id="veh209" type="veh_passenger" depart="2291.32" departLane="best" from="140491967#3" to="-140500589#1"/>
    <trip id="veh210" type="veh_passenger" depart="2302.29" departLane="best" from="382767154" to="250745807#0"/>
    <trip id="veh211" type="veh_passenger" depart="2313.25" departLane="best" from="137686044#0" to="140505664"/>
    <trip id="veh212" type="veh_passenger" depart="2324.21" departLane="best" from="137730512" to="672844045#1"/>
    <trip id="veh213" type="veh_passenger" depart="2335.18" departLane="best" from="137732794#1" to="486438093#6"/>
    <trip id="veh214" type="veh_passenger" depart="2346.14" departLane="best" from="-38032872#0" to="283473134#6"/>
    <trip id="veh215" type="veh_passenger" depart="2357.10" departLane="best" departSpeed="max" from="137426321#0" to="115593016#1"/>
    <trip id="veh216" type="veh_passenger" depart="2368.07" departLane="best" from="136986689#1" to="251666025#0"/>
    <trip id="veh217" type="veh_passenger" depart="2379.03" departLane="best" from="38032871#0" to="69765150"/>
    <trip id="veh218" type="veh_passenger" depart="2389.99" departLane="best" from="137732794#0" to="251114321#1"/>
    <trip id="veh219" type="veh_passenger" depart="2400.96" departLane="best" departSpeed="max" from="140492996#0" to="208040945#1"/>
    <trip id="veh220" type="veh_passenger" depart="2411.92" departLane="best" from="-35108083#1" to="-751134715#0"/>
    <trip id="veh221" type="veh_passenger" depart="2422.88" departLane="best" departSpeed="max" from="137859465#0" to="137346395#1"/>
    <trip id="veh222" type="veh_passenger" depart="2433.85" departLane="best" from="136815666#0" to="250742412"/>
    <trip id="veh223" type="veh_passenger" depart="2444.81" departLane="best" from="137470000" to="302522083"/>
    <trip id="veh224" type="veh_passenger" depart="2455.77" departLane="best" from="-138008965#1" to="-140500584#0"/>
    <trip id="veh225" type="veh_passenger" depart="2466.74" departLane="best" from="214802502#2" to="-137333243"/>
    <trip id="veh226" type="veh_passenger" depart="2477.70" departLane="best" departSpeed="max" from="137467899" to="140651917#3"/>
    <trip id="veh227" type="veh_passenger" depart="2488.66" departLane="best" from="136879211#1" to="854252429#1"/>
    <trip id="veh228" type="veh_passenger" depart="2499.63" departLane="best" departSpeed="max" from="-140493002" to="139534005#1"/>
    <trip id="veh229" type="veh_passenger" depart="2510.59" departLane="best" from="-137686045#0" to="43785333#0"/>
    <trip id="veh230" type="veh_passenger" depart="2521.55" departLane="best" departSpeed="max" from="-316084252" to="137354137"/>
    <trip id="veh231" type="veh_passenger" depart="2532.52" departLane="best" from="250746855#0" to="43785333#0"/>
    <trip id="veh232" type="veh_passenger" depart="2543.48" departLane="best" from="250745834#1" to="35428569"/>
    <trip id="veh233" type="veh_passenger" depart="2554.44" departLane="best" from="-4758403#1" to="-139500472#4"/>
    <trip id="veh234" type="veh_passenger" depart="2565.41" departLane="best" from="-136813522#0" to="140500590#4"/>
    <trip id="veh235" type="veh_passenger" depart="2576.37" departLane="best" from="99220643" to="137669893#0"/>
    <trip id="veh236" type="veh_passenger" depart="2587.33" departLane="best" from="242393008#0" to="302522083"/>
    <trip id="veh237" type="veh_passenger" depart="2598.30" departLane="best" from="249757264#1" to="251666025#1"/>
    <trip id="veh238" type="veh_passenger" depart="2609.26" departLane="best" from="-136813524" to="187264126#3"/>
    <trip id="veh239" type="veh_passenger" depart="2620.22" departLane="best" departSpeed="max" from="-140491958#1" to="250742417"/>
    <trip id="veh240" type="veh_passenger" depart="2631.19" departLane="best" from="140500581#2" to="-751134715#0"/>
    <trip id="veh241" type="veh_passenger" depart="2642.15" departLane="best" from="250742412" to="283473134#6"/>
    <trip id="veh242" type="veh_passenger" depart="2653.11" departLane="best" departSpeed="max" from="-140645130#1" to="214802502#1"/>
    <trip id="veh243" type="veh_passenger" depart="2664.07" departLane="best" from="250745830#1" to="-140499088#0"/>
    <trip id="veh244" type="veh_passenger" depart="2675.04" departLane="best" from="31992106" to="70917026#2"/>
    <trip id="veh245" type="veh_passenger" depart="2686.00" departLane="best" departSpeed="max" from="-139534005#2" to="-137333241"/>
    <trip id="veh246" type="veh_passenger" depart="2696.96" departLane="best" departSpeed="max" from="131625166#0" to="250742425#2"/>
    <trip id="veh247" type="veh_passenger" depart="2707.93" departLane="best" from="70917026#2" to="138008934#4"/>
    <trip id="veh249" type="veh_passenger" depart="2729.85" departLane="best" departSpeed="max" from="-139500484#7" to="289759705"/>
    <trip id="veh250" type="veh_passenger" depart="2740.82" departLane="best" from="36843488#0" to="199278540#0"/>
    <trip id="veh251" type="veh_passenger" depart="2751.78" departLane="best" departSpeed="max" from="-140491956" to="82241308#2"/>
    <trip id="veh252" type="veh_passenger" depart="2762.74" departLane="best" from="-283473134#3" to="137469983#4"/>
    <trip id="veh253" type="veh_passenger" depart="2773.71" departLane="best" from="-139533995#1" to="137467897#0"/>
    <trip id="veh254" type="veh_passenger" depart="2784.67" departLane="best" from="-139534004#2" to="70917007#1"/>
    <trip id="veh255" type="veh_passenger" depart="2795.63" departLane="best" from="250742418#1" to="139500480#0"/>
    <trip id="veh256" type="veh_passenger" depart="2806.60" departLane="best" from="250745810#0" to="70917026#4"/>
    <trip id="veh257" type="veh_passenger" depart="2817.56" departLane="best" departSpeed="max" from="-68911749" to="31723300"/>
    <trip id="veh259" type="veh_passenger" depart="2839.49" departLane="best" departSpeed="max" from="137859465#0" to="250746849#1"/>
    <trip id="veh260" type="veh_passenger" depart="2850.45" departLane="best" from="-672844044" to="38032871#1"/>
    <trip id="veh261" type="veh_passenger" depart="2861.41" departLane="best" from="346640056" to="139500484#2"/>
    <trip id="veh262" type="veh_passenger" depart="2872.38" departLane="best" from="-43257576#2" to="1109747991"/>
    <trip id="veh263" type="veh_passenger" depart="2883.34" departLane="best" from="137426320" to="137341269#1"/>
    <trip id="veh264" type="veh_passenger" depart="2894.30" departLane="best" from="36843488#1" to="38032872#4"/>
    <trip id="veh265" type="veh_passenger" depart="2905.27" departLane="best" departSpeed="max" from="-316084252" to="310929450#2"/>
    <trip id="veh266" type="veh_passenger" depart="2916.23" departLane="best" from="136828909" to="43257576#1"/>
    <trip id="veh267" type="veh_passenger" depart="2927.19" departLane="best" from="250742413#0" to="136307006#1"/>
    <trip id="veh268" type="veh_passenger" depart="2938.16" departLane="best" from="121548429#1" to="68911747"/>
    <trip id="veh269" type="veh_passenger" depart="2949.12" departLane="best" from="-139498481#0" to="250745818"/>
    <trip id="veh270" type="veh_passenger" depart="2960.08" departLane="best" from="139500482#2" to="25329570"/>
    <trip id="veh271" type="veh_passenger" depart="2971.05" departLane="best" from="139500483#2" to="310929450#2"/>
    <trip id="veh273" type="veh_passenger" depart="2992.97" departLane="best" from="250739906#0" to="137011588"/>
    <trip id="veh274" type="veh_passenger" depart="3003.94" departLane="best" from="140500590#3" to="139534029#3"/>