<?xml version="1.0" encoding="UTF-8"?>

<!-- generated on Mo 15 Mär 2021 10:37:38 CET by Eclipse SUMO netedit Version v1_7_0+1228-0b1a97d77e
<configuration xmlns:xsi="http://www.w3.org/2001/XMLSchema-instance" xsi:noNamespaceSchemaLocation="http://sumo.dlr.de/xsd/netconvertConfiguration.xsd">

    <input>
        <sumo-net-file value="osm.net.xml"/>
    </input>

    <output>
        <output-file value="/home/kons/GIT/sumo/parameterization_evaluation/Moabit_default/moabit_orig.net.xml"/>
    </output>

    <processing>
        <geometry.min-radius.fix.railways value="false"/>
        <geometry.max-grade.fix value="false"/>
        <offset.disable-normalization value="true"/>
        <lefthand value="false"/>
    </processing>

    <junctions>
        <no-turnarounds value="true"/>
        <junctions.corner-detail value="5"/>
        <junctions.limit-turn-speed value="5.5"/>
        <rectangular-lane-cut value="false"/>
    </junctions>

    <pedestrian>
        <walkingareas value="false"/>
    </pedestrian>

    <report>
        <aggregate-warnings value="5"/>
    </report>

</configuration>
-->

<net version="1.6" junctionCornerDetail="5" limitTurnSpeed="5.50" xmlns:xsi="http://www.w3.org/2001/XMLSchema-instance" xsi:noNamespaceSchemaLocation="http://sumo.dlr.de/xsd/net_file.xsd">

    <location netOffset="-386362.07,-5820615.58" convBoundary="0.00,0.00,1123.44,1086.66" origBoundary="13.324779,52.523848,13.341339,52.533878" projParameter="+proj=utm +zone=33 +ellps=WGS84 +datum=WGS84 +units=m +no_defs"/>

    <type id="highway.bridleway" priority="1" numLanes="1" speed="2.78" allow="pedestrian" oneway="1" width="2.00"/>
    <type id="highway.bus_guideway" priority="1" numLanes="1" speed="27.78" allow="bus" oneway="1"/>
    <type id="highway.cycleway" priority="1" numLanes="1" speed="8.33" allow="bicycle" oneway="0" width="1.00"/>
    <type id="highway.footway" priority="1" numLanes="1" speed="2.78" allow="pedestrian" oneway="1" width="2.00"/>
    <type id="highway.ford" priority="1" numLanes="1" speed="2.78" allow="army" oneway="0"/>
    <type id="highway.living_street" priority="2" numLanes="1" speed="2.78" disallow="tram rail_urban rail rail_electric rail_fast ship" oneway="0"/>
    <type id="highway.motorway" priority="14" numLanes="2" speed="39.44" allow="private emergency authority army vip passenger hov taxi bus coach delivery truck trailer motorcycle evehicle custom1 custom2" oneway="1"/>
    <type id="highway.motorway_link" priority="9" numLanes="1" speed="22.22" allow="private emergency authority army vip passenger hov taxi bus coach delivery truck trailer motorcycle evehicle custom1 custom2" oneway="1"/>
    <type id="highway.path" priority="1" numLanes="1" speed="2.78" allow="pedestrian bicycle" oneway="0" width="2.00"/>
    <type id="highway.pedestrian" priority="1" numLanes="1" speed="2.78" allow="pedestrian" oneway="1" width="2.00"/>
    <type id="highway.primary" priority="12" numLanes="2" speed="27.78" disallow="tram rail_urban rail rail_electric rail_fast ship" oneway="0"/>
    <type id="highway.primary_link" priority="7" numLanes="1" speed="22.22" disallow="tram rail_urban rail rail_electric rail_fast ship" oneway="0"/>
    <type id="highway.raceway" priority="15" numLanes="2" speed="83.33" allow="vip" oneway="0"/>
    <type id="highway.residential" priority="3" numLanes="1" speed="13.89" disallow="tram rail_urban rail rail_electric rail_fast ship" oneway="0"/>
    <type id="highway.secondary" priority="11" numLanes="1" speed="27.78" disallow="tram rail_urban rail rail_electric rail_fast ship" oneway="0"/>
    <type id="highway.secondary_link" priority="6" numLanes="1" speed="22.22" disallow="tram rail_urban rail rail_electric rail_fast ship" oneway="0"/>
    <type id="highway.service" priority="1" numLanes="1" speed="5.56" allow="pedestrian delivery bicycle" oneway="0"/>
    <type id="highway.stairs" priority="1" numLanes="1" speed="1.39" allow="pedestrian" oneway="1" width="2.00"/>
    <type id="highway.step" priority="1" numLanes="1" speed="1.39" allow="pedestrian" oneway="1" width="2.00"/>
    <type id="highway.steps" priority="1" numLanes="1" speed="1.39" allow="pedestrian" oneway="1" width="2.00"/>
    <type id="highway.tertiary" priority="10" numLanes="1" speed="22.22" disallow="tram rail_urban rail rail_electric rail_fast ship" oneway="0"/>
    <type id="highway.tertiary_link" priority="5" numLanes="1" speed="22.22" disallow="tram rail_urban rail rail_electric rail_fast ship" oneway="0"/>
    <type id="highway.track" priority="1" numLanes="1" speed="5.56" allow="pedestrian motorcycle moped bicycle" oneway="0"/>
    <type id="highway.trunk" priority="13" numLanes="2" speed="27.78" disallow="pedestrian bicycle tram rail_urban rail rail_electric rail_fast ship" oneway="0"/>
    <type id="highway.trunk_link" priority="8" numLanes="1" speed="22.22" disallow="pedestrian bicycle tram rail_urban rail rail_electric rail_fast ship" oneway="0"/>
    <type id="highway.unclassified" priority="4" numLanes="1" speed="13.89" disallow="tram rail_urban rail rail_electric rail_fast ship" oneway="0"/>
    <type id="highway.unsurfaced" priority="1" numLanes="1" speed="8.33" disallow="tram rail_urban rail rail_electric rail_fast ship" oneway="0"/>
    <type id="railway.highspeed" priority="21" numLanes="1" speed="69.44" allow="rail_fast" oneway="1"/>
    <type id="railway.light_rail" priority="19" numLanes="1" speed="27.78" allow="rail_urban" oneway="1"/>
    <type id="railway.preserved" priority="16" numLanes="1" speed="27.78" allow="rail" oneway="1"/>
    <type id="railway.rail" priority="20" numLanes="1" speed="44.44" allow="rail" oneway="1"/>
    <type id="railway.subway" priority="18" numLanes="1" speed="27.78" allow="rail_urban" oneway="1"/>
    <type id="railway.tram" priority="17" numLanes="1" speed="13.89" allow="tram" oneway="1"/>

    <edge id=":1364442736_0" function="internal">
        <lane id=":1364442736_0_0" index="0" allow="bicycle" speed="13.89" length="0.29" width="1.00" shape="276.87,1024.63 276.58,1024.66"/>
        <lane id=":1364442736_0_1" index="1" disallow="bicycle tram rail_urban rail rail_electric rail_fast ship" speed="13.89" length="0.29" shape="276.66,1022.54 276.37,1022.57"/>
        <lane id=":1364442736_0_2" index="2" disallow="bicycle tram rail_urban rail rail_electric rail_fast ship" speed="13.89" length="0.29" shape="276.35,1019.35 276.06,1019.38"/>
        <lane id=":1364442736_0_3" index="3" disallow="bicycle tram rail_urban rail rail_electric rail_fast ship" speed="13.89" length="0.29" shape="276.04,1016.17 275.74,1016.20"/>
    </edge>
    <edge id=":1364442736_4" function="internal">
        <lane id=":1364442736_4_0" index="0" allow="bicycle" speed="13.89" length="0.31" width="1.00" shape="274.89,1007.74 275.21,1007.71"/>
        <lane id=":1364442736_4_1" index="1" disallow="bicycle tram rail_urban rail rail_electric rail_fast ship" speed="13.89" length="0.31" shape="275.10,1009.83 275.41,1009.80"/>
        <lane id=":1364442736_4_2" index="2" disallow="bicycle tram rail_urban rail rail_electric rail_fast ship" speed="13.89" length="0.31" shape="275.42,1013.01 275.72,1012.98"/>
    </edge>
    <edge id=":1846908923_0" function="internal">
        <lane id=":1846908923_0_0" index="0" disallow="tram rail_urban rail rail_electric rail_fast ship" speed="2.78" length="9.03" shape="640.02,749.00 639.27,746.63 637.94,745.09 636.04,744.39 633.56,744.52"/>
    </edge>
    <edge id=":1846908923_1" function="internal">
        <lane id=":1846908923_1_0" index="0" disallow="tram rail_urban rail rail_electric rail_fast ship" speed="2.78" length="14.49" shape="640.02,749.00 637.59,734.71"/>
    </edge>
    <edge id=":1846908923_2" function="internal">
        <lane id=":1846908923_2_0" index="0" disallow="tram rail_urban rail rail_electric rail_fast ship" speed="2.78" length="14.29" shape="640.02,749.00 639.93,745.07 641.10,742.05 643.53,739.92 647.23,738.71"/>
    </edge>
    <edge id=":1846908923_3" function="internal">
        <lane id=":1846908923_3_0" index="0" disallow="tram rail_urban rail rail_electric rail_fast ship" speed="2.78" length="4.67" shape="640.02,749.00 640.62,747.69 641.34,747.16 642.19,747.43 643.18,748.48"/>
    </edge>
    <edge id=":1846908923_4" function="internal">
        <lane id=":1846908923_4_0" index="0" disallow="tram rail_urban rail rail_electric rail_fast ship" speed="2.78" length="9.18" shape="647.79,741.86 645.42,742.64 643.86,744.00 643.12,745.95 643.18,748.48"/>
    </edge>
    <edge id=":1846908923_5" function="internal">
        <lane id=":1846908923_5_0" index="0" disallow="tram rail_urban rail rail_electric rail_fast ship" speed="2.78" length="14.48" shape="647.79,741.86 633.56,744.52"/>
    </edge>
    <edge id=":1846908923_6" function="internal">
        <lane id=":1846908923_6_0" index="0" disallow="tram rail_urban rail rail_electric rail_fast ship" speed="2.78" length="14.20" shape="647.79,741.86 643.90,741.99 640.90,740.84 638.80,738.42 637.59,734.71"/>
    </edge>
    <edge id=":1846908923_7" function="internal">
        <lane id=":1846908923_7_0" index="0" disallow="tram rail_urban rail rail_electric rail_fast ship" speed="2.78" length="4.67" shape="647.79,741.86 646.47,741.28 645.93,740.56 646.19,739.70 647.23,738.71"/>
    </edge>
    <edge id=":1846908923_8" function="internal">
        <lane id=":1846908923_8_0" index="0" disallow="tram rail_urban rail rail_electric rail_fast ship" speed="2.78" length="9.03" shape="640.75,734.16 641.51,736.52 642.85,738.06 644.75,738.79 647.23,738.71"/>
    </edge>
    <edge id=":1846908923_9" function="internal">
        <lane id=":1846908923_9_0" index="0" disallow="tram rail_urban rail rail_electric rail_fast ship" speed="2.78" length="14.52" shape="640.75,734.16 643.18,748.48"/>
    </edge>
    <edge id=":1846908923_10" function="internal">
        <lane id=":1846908923_10_0" index="0" disallow="tram rail_urban rail rail_electric rail_fast ship" speed="2.78" length="14.31" shape="640.75,734.16 640.86,738.05 639.70,741.07 637.27,743.23 633.56,744.52"/>
    </edge>
    <edge id=":1846908923_11" function="internal">
        <lane id=":1846908923_11_0" index="0" disallow="tram rail_urban rail rail_electric rail_fast ship" speed="2.78" length="4.67" shape="640.75,734.16 640.16,735.48 639.45,736.01 638.59,735.76 637.59,734.71"/>
    </edge>
    <edge id=":1846908923_12" function="internal">
        <lane id=":1846908923_12_0" index="0" disallow="tram rail_urban rail rail_electric rail_fast ship" speed="2.78" length="9.22" shape="632.94,741.38 635.34,740.55 636.92,739.16 637.67,737.21 637.59,734.71"/>
    </edge>
    <edge id=":1846908923_13" function="internal">
        <lane id=":1846908923_13_0" index="0" disallow="tram rail_urban rail rail_electric rail_fast ship" speed="2.78" length="14.53" shape="632.94,741.38 647.23,738.71"/>
    </edge>
    <edge id=":1846908923_14" function="internal">
        <lane id=":1846908923_14_0" index="0" disallow="tram rail_urban rail rail_electric rail_fast ship" speed="2.78" length="14.31" shape="632.94,741.38 636.87,741.17 639.89,742.29 641.99,744.72 643.18,748.48"/>
    </edge>
    <edge id=":1846908923_15" function="internal">
        <lane id=":1846908923_15_0" index="0" disallow="tram rail_urban rail rail_electric rail_fast ship" speed="2.78" length="4.67" shape="632.94,741.38 634.27,741.93 634.82,742.64 634.58,743.50 633.56,744.52"/>
    </edge>
    <edge id=":1918759971_0" function="internal">
        <lane id=":1918759971_0_0" index="0" disallow="tram rail_urban rail rail_electric rail_fast ship" speed="2.78" length="4.67" shape="4.63,780.19 3.55,779.24 3.25,778.39 3.76,777.65 5.05,777.01"/>
    </edge>
    <edge id=":1929624605_0" function="internal">
        <lane id=":1929624605_0_0" index="0" disallow="bicycle tram rail_urban rail rail_electric rail_fast ship" speed="3.65" length="4.67" shape="319.87,0.13 320.57,-1.13 321.33,-1.59 322.16,-1.26 323.05,-0.13"/>
    </edge>
    <edge id=":1932251257_0" function="internal">
        <lane id=":1932251257_0_0" index="0" allow="bicycle" speed="13.89" length="6.64" width="1.00" shape="336.69,1028.30 335.14,1027.67 334.04,1027.35 332.90,1027.15 331.25,1026.85"/>
        <lane id=":1932251257_0_1" index="1" disallow="bicycle tram rail_urban rail rail_electric rail_fast ship" speed="13.89" length="6.64" shape="337.55,1026.39 335.87,1025.70 334.68,1025.35 333.45,1025.12 331.66,1024.79"/>
        <lane id=":1932251257_0_2" index="2" disallow="bicycle tram rail_urban rail rail_electric rail_fast ship" speed="13.89" length="6.64" shape="338.86,1023.47 336.99,1022.69 335.66,1022.29 334.29,1022.03 332.29,1021.66"/>
        <lane id=":1932251257_0_3" index="3" disallow="bicycle tram rail_urban rail rail_electric rail_fast ship" speed="13.89" length="6.64" shape="338.86,1023.47 336.97,1022.13 335.98,1020.68 334.95,1019.39 332.92,1018.52"/>
    </edge>
    <edge id=":1932251257_4" function="internal">
        <lane id=":1932251257_4_0" index="0" allow="bicycle" speed="13.89" length="9.18" width="1.00" shape="334.58,1010.18 337.15,1011.17 338.58,1012.57 339.94,1014.16 342.33,1015.71"/>
        <lane id=":1932251257_4_1" index="1" disallow="bicycle tram rail_urban rail rail_electric rail_fast ship" speed="13.89" length="9.18" shape="334.17,1012.24 336.61,1013.20 337.94,1014.57 339.21,1016.13 341.47,1017.63"/>
        <lane id=":1932251257_4_2" index="2" disallow="bicycle tram rail_urban rail rail_electric rail_fast ship" speed="13.89" length="9.18" shape="333.54,1015.38 335.78,1016.29 336.96,1017.63 338.09,1019.13 340.16,1020.55"/>
    </edge>
    <edge id=":1932251258_0" function="internal">
        <lane id=":1932251258_0_0" index="0" allow="bicycle" speed="13.89" length="0.23" width="1.00" shape="415.94,1076.01 415.75,1075.91"/>
        <lane id=":1932251258_0_1" index="1" disallow="bicycle tram rail_urban rail rail_electric rail_fast ship" speed="13.89" length="0.23" shape="416.92,1074.15 416.70,1074.04"/>
    </edge>
    <edge id=":1932251258_2" function="internal">
        <lane id=":1932251258_2_0" index="0" disallow="bicycle tram rail_urban rail rail_electric rail_fast ship" speed="3.65" length="2.34" shape="416.92,1074.15 416.23,1072.88 416.25,1071.99"/>
    </edge>
    <edge id=":1932251258_6" function="internal">
        <lane id=":1932251258_6_0" index="0" disallow="bicycle tram rail_urban rail rail_electric rail_fast ship" speed="3.65" length="2.34" shape="416.25,1071.99 416.98,1071.47 418.41,1071.32"/>
    </edge>
    <edge id=":1932251258_3" function="internal">
        <lane id=":1932251258_3_0" index="0" allow="bicycle" speed="13.89" length="0.33" width="1.00" shape="419.08,1069.30 419.39,1069.46"/>
        <lane id=":1932251258_3_1" index="1" disallow="bicycle tram rail_urban rail rail_electric rail_fast ship" speed="13.89" length="0.33" shape="418.13,1071.18 418.41,1071.32"/>
    </edge>
    <edge id=":1932251258_5" function="internal">
        <lane id=":1932251258_5_0" index="0" disallow="bicycle tram rail_urban rail rail_electric rail_fast ship" speed="3.65" length="2.34" shape="418.13,1071.18 418.85,1072.43 418.84,1073.33"/>
    </edge>
    <edge id=":1932251258_7" function="internal">
        <lane id=":1932251258_7_0" index="0" disallow="bicycle tram rail_urban rail rail_electric rail_fast ship" speed="3.65" length="2.34" shape="418.84,1073.33 418.13,1073.86 416.70,1074.04"/>
    </edge>
    <edge id=":1932251259_0" function="internal">
        <lane id=":1932251259_0_0" index="0" allow="bicycle" speed="13.89" length="3.49" width="1.00" shape="338.16,1030.40 336.87,1028.39"/>
        <lane id=":1932251259_0_1" index="1" disallow="bicycle tram rail_urban rail rail_electric rail_fast ship" speed="13.89" length="3.49" shape="339.80,1029.01 339.14,1028.28 338.84,1027.61 338.50,1027.01 337.73,1026.47"/>
        <lane id=":1932251259_0_2" index="2" disallow="bicycle tram rail_urban rail rail_electric rail_fast ship" speed="13.89" length="3.49" shape="342.29,1026.89 341.30,1025.90 340.77,1025.04 340.18,1024.27 339.04,1023.55"/>
    </edge>
    <edge id=":1932251259_3" function="internal">
        <lane id=":1932251259_3_0" index="0" allow="bicycle" speed="13.89" length="4.56" width="1.00" shape="342.51,1015.79 343.49,1016.50 343.98,1017.27 344.50,1017.98 345.54,1018.49"/>
        <lane id=":1932251259_3_1" index="1" disallow="bicycle tram rail_urban rail rail_electric rail_fast ship" speed="13.89" length="4.56" shape="341.65,1017.71 342.73,1018.46 343.30,1019.26 343.89,1019.99 345.03,1020.53"/>
        <lane id=":1932251259_3_2" index="2" disallow="bicycle tram rail_urban rail rail_electric rail_fast ship" speed="13.89" length="4.56" shape="340.35,1020.63 341.57,1021.44 342.25,1022.29 342.96,1023.06 344.27,1023.64"/>
    </edge>
    <edge id=":1932251259_6" function="internal">
        <lane id=":1932251259_6_0" index="0" disallow="bicycle tram rail_urban rail rail_electric rail_fast ship" speed="3.65" length="2.56" shape="340.35,1020.63 341.11,1021.85 341.15,1022.74 340.98,1022.88"/>
    </edge>
    <edge id=":1932251259_7" function="internal">
        <lane id=":1932251259_7_0" index="0" disallow="bicycle tram rail_urban rail rail_electric rail_fast ship" speed="3.65" length="2.12" shape="340.98,1022.88 340.46,1023.31 339.04,1023.55"/>
    </edge>
    <edge id=":1942590570_0" function="internal">
        <lane id=":1942590570_0_0" index="0" allow="bicycle" speed="13.89" length="9.14" width="1.00" shape="361.80,1042.41 359.52,1041.31 357.67,1041.19 355.77,1041.16 353.32,1040.32"/>
        <lane id=":1942590570_0_1" index="1" disallow="bicycle tram rail_urban rail rail_electric rail_fast ship" speed="13.89" length="9.14" shape="363.02,1040.70 360.62,1039.52 358.68,1039.35 356.69,1039.27 354.12,1038.36"/>
        <lane id=":1942590570_0_2" index="2" disallow="bicycle tram rail_urban rail rail_electric rail_fast ship" speed="13.89" length="9.14" shape="363.02,1040.70 360.83,1039.06 359.36,1037.90 357.83,1036.82 355.47,1035.45"/>
    </edge>
    <edge id=":1942590570_3" function="internal">
        <lane id=":1942590570_3_0" index="0" disallow="bicycle tram rail_urban rail rail_electric rail_fast ship" speed="3.65" length="2.34" shape="363.02,1040.70 362.50,1039.35 362.64,1038.47"/>
    </edge>
    <edge id=":1942590570_7" function="internal">
        <lane id=":1942590570_7_0" index="0" disallow="bicycle tram rail_urban rail rail_electric rail_fast ship" speed="3.65" length="2.34" shape="362.64,1038.47 363.43,1038.05 364.87,1038.09"/>
    </edge>
    <edge id=":1942590570_4" function="internal">
        <lane id=":1942590570_4_0" index="0" allow="bicycle" speed="13.89" length="8.48" width="1.00" shape="361.99,1028.70 363.62,1030.35 364.79,1031.43 366.05,1032.41 367.94,1033.77"/>
        <lane id=":1942590570_4_1" index="1" disallow="bicycle tram rail_urban rail rail_electric rail_fast ship" speed="13.89" length="8.48" shape="360.35,1030.03 362.10,1031.81 363.35,1032.97 364.70,1034.03 366.72,1035.48"/>
        <lane id=":1942590570_4_2" index="2" disallow="bicycle tram rail_urban rail rail_electric rail_fast ship" speed="13.89" length="8.48" shape="357.92,1032.12 359.83,1034.06 361.19,1035.34 362.66,1036.50 364.87,1038.09"/>
    </edge>
    <edge id=":2139166116_0" function="internal">
        <lane id=":2139166116_0_0" index="0" allow="bicycle" speed="13.89" length="0.30" width="1.00" shape="76.31,969.65 76.03,969.57"/>
        <lane id=":2139166116_0_1" index="1" disallow="bicycle tram rail_urban rail rail_electric rail_fast ship" speed="13.89" length="0.30" shape="76.89,967.63 76.61,967.55"/>
    </edge>
    <edge id=":2139166116_2" function="internal">
        <lane id=":2139166116_2_0" index="0" allow="bicycle" speed="13.89" length="0.30" width="1.00" shape="78.06,962.45 78.36,962.54"/>
        <lane id=":2139166116_2_1" index="1" disallow="bicycle tram rail_urban rail rail_electric rail_fast ship" speed="13.89" length="0.30" shape="77.49,964.47 77.78,964.55"/>
    </edge>
    <edge id=":26726581_0" function="internal">
        <lane id=":26726581_0_0" index="0" allow="bicycle" speed="8.33" length="11.42" width="1.00" shape="490.32,992.09 486.99,991.88 484.70,991.84 482.41,991.97 479.08,992.25"/>
        <lane id=":26726581_0_1" index="1" disallow="bicycle tram rail_urban rail rail_electric rail_fast ship" speed="8.33" length="11.42" shape="490.47,989.99 487.04,989.78 484.69,989.74 482.34,989.87 478.91,990.16"/>
    </edge>
    <edge id=":26726581_2" function="internal">
        <lane id=":26726581_2_0" index="0" disallow="bicycle tram rail_urban rail rail_electric rail_fast ship" speed="5.55" length="4.83" shape="490.47,989.99 487.53,989.25 486.10,988.16"/>
    </edge>
    <edge id=":26726581_3" function="internal">
        <lane id=":26726581_3_0" index="0" disallow="bicycle tram rail_urban rail rail_electric rail_fast ship" speed="3.65" length="2.34" shape="490.47,989.99 489.33,989.11 488.99,988.28"/>
    </edge>
    <edge id=":26726581_14" function="internal">
        <lane id=":26726581_14_0" index="0" disallow="bicycle tram rail_urban rail rail_electric rail_fast ship" speed="5.55" length="8.30" shape="486.10,988.16 485.22,987.49 483.54,984.71 482.50,980.90"/>
    </edge>
    <edge id=":26726581_15" function="internal">
        <lane id=":26726581_15_0" index="0" disallow="bicycle tram rail_urban rail rail_electric rail_fast ship" speed="3.65" length="2.34" shape="488.99,988.28 489.44,987.51 490.70,986.80"/>
    </edge>
    <edge id=":26726581_4" function="internal">
        <lane id=":26726581_4_0" index="0" allow="bicycle" speed="5.55" length="6.64" width="1.00" shape="486.73,980.18 487.26,982.07 488.13,983.45 489.32,984.33 490.85,984.71"/>
    </edge>
    <edge id=":26726581_5" function="internal">
        <lane id=":26726581_5_0" index="0" disallow="bicycle tram rail_urban rail rail_electric rail_fast ship" speed="5.55" length="8.84" shape="485.65,980.37 486.36,983.07 487.44,985.05 488.88,986.29 490.70,986.80"/>
    </edge>
    <edge id=":26726581_6" function="internal">
        <lane id=":26726581_6_0" index="0" allow="bicycle" speed="5.55" length="14.81" width="1.00" shape="484.57,980.55 484.93,985.44 484.14,989.02 482.19,991.29 479.08,992.25"/>
    </edge>
    <edge id=":26726581_7" function="internal">
        <lane id=":26726581_7_0" index="0" disallow="bicycle tram rail_urban rail rail_electric rail_fast ship" speed="5.55" length="13.82" shape="485.65,980.37 485.81,984.39 484.74,987.37 482.44,989.29 478.91,990.16"/>
    </edge>
    <edge id=":26726581_8" function="internal">
        <lane id=":26726581_8_0" index="0" disallow="tram rail_urban rail rail_electric rail_fast ship" speed="2.78" length="4.67" shape="485.65,980.37 485.06,981.68 484.34,982.21 483.49,981.95 482.50,980.90"/>
    </edge>
    <edge id=":26726581_9" function="internal">
        <lane id=":26726581_9_0" index="0" allow="bicycle" speed="4.83" length="5.58" shape="478.47,984.88 479.98,984.53 480.97,983.78 481.45,982.64 481.41,981.09"/>
    </edge>
    <edge id=":26726581_10" function="internal">
        <lane id=":26726581_10_0" index="0" allow="bicycle" speed="8.33" length="12.40" width="1.00" shape="478.47,984.88 482.14,984.57 484.66,984.43 487.18,984.47 490.85,984.71"/>
    </edge>
    <edge id=":26726581_11" function="internal">
        <lane id=":26726581_11_0" index="0" disallow="bicycle tram rail_urban rail rail_electric rail_fast ship" speed="5.55" length="3.34" shape="478.65,986.97 480.69,986.44 481.61,985.62"/>
    </edge>
    <edge id=":26726581_12" function="internal">
        <lane id=":26726581_12_0" index="0" disallow="bicycle tram rail_urban rail rail_electric rail_fast ship" speed="8.33" length="12.07" shape="478.65,986.97 482.22,986.67 484.67,986.54 487.12,986.57 490.70,986.80"/>
    </edge>
    <edge id=":26726581_13" function="internal">
        <lane id=":26726581_13_0" index="0" disallow="bicycle tram rail_urban rail rail_electric rail_fast ship" speed="3.65" length="2.34" shape="478.65,986.97 479.91,987.67 480.37,988.43"/>
    </edge>
    <edge id=":26726581_16" function="internal">
        <lane id=":26726581_16_0" index="0" disallow="bicycle tram rail_urban rail rail_electric rail_fast ship" speed="5.55" length="5.00" shape="481.61,985.62 482.02,985.25 482.62,983.41 482.50,980.90"/>
    </edge>
    <edge id=":26726581_17" function="internal">
        <lane id=":26726581_17_0" index="0" disallow="bicycle tram rail_urban rail rail_electric rail_fast ship" speed="3.65" length="2.34" shape="480.37,988.43 480.04,989.26 478.91,990.16"/>
    </edge>
    <edge id=":26726583_0" function="internal">
        <lane id=":26726583_0_0" index="0" disallow="tram rail_urban rail rail_electric rail_fast ship" speed="2.78" length="9.12" shape="447.81,785.96 447.02,783.56 445.66,782.00 443.74,781.27 441.27,781.36"/>
    </edge>
    <edge id=":26726583_1" function="internal">
        <lane id=":26726583_1_0" index="0" disallow="tram rail_urban rail rail_electric rail_fast ship" speed="2.78" length="14.50" shape="447.81,785.96 445.18,771.69"/>
    </edge>
    <edge id=":26726583_2" function="internal">
        <lane id=":26726583_2_0" index="0" disallow="tram rail_urban rail rail_electric rail_fast ship" speed="2.78" length="10.88" shape="447.81,785.96 447.75,783.09 448.39,780.05 449.65,777.55 451.39,776.36"/>
    </edge>
    <edge id=":26726583_3" function="internal">
        <lane id=":26726583_3_0" index="0" disallow="tram rail_urban rail rail_electric rail_fast ship" speed="2.78" length="4.67" shape="447.81,785.96 448.38,784.63 449.10,784.09 449.96,784.34 450.96,785.37"/>
    </edge>
    <edge id=":26726583_4" function="internal">
        <lane id=":26726583_4_0" index="0" disallow="tram rail_urban rail rail_electric rail_fast ship" speed="2.78" length="6.39" shape="451.87,779.52 451.09,780.00 450.67,781.13 450.63,782.92 450.96,785.37"/>
    </edge>
    <edge id=":26726583_5" function="internal">
        <lane id=":26726583_5_0" index="0" disallow="tram rail_urban rail rail_electric rail_fast ship" speed="2.78" length="10.76" shape="451.87,779.52 441.27,781.36"/>
    </edge>
    <edge id=":26726583_6" function="internal">
        <lane id=":26726583_6_0" index="0" disallow="tram rail_urban rail rail_electric rail_fast ship" speed="2.78" length="10.89" shape="451.87,779.52 449.84,778.94 447.80,777.02 446.13,774.39 445.18,771.69"/>
    </edge>
    <edge id=":26726583_7" function="internal">
        <lane id=":26726583_7_0" index="0" disallow="tram rail_urban rail rail_electric rail_fast ship" speed="2.78" length="4.67" shape="451.87,779.52 450.56,778.91 450.05,778.18 450.32,777.33 451.39,776.36"/>
    </edge>
    <edge id=":26726583_8" function="internal">
        <lane id=":26726583_8_0" index="0" disallow="tram rail_urban rail rail_electric rail_fast ship" speed="2.78" length="6.53" shape="448.33,771.11 448.91,773.52 449.61,775.20 450.44,776.15 451.39,776.36"/>
    </edge>
    <edge id=":26726583_9" function="internal">
        <lane id=":26726583_9_0" index="0" disallow="tram rail_urban rail rail_electric rail_fast ship" speed="2.78" length="14.50" shape="448.33,771.11 450.96,785.37"/>
    </edge>
    <edge id=":26726583_10" function="internal">
        <lane id=":26726583_10_0" index="0" disallow="tram rail_urban rail rail_electric rail_fast ship" speed="2.78" length="13.44" shape="448.33,771.11 448.12,774.33 446.61,777.49 444.20,780.02 441.27,781.36"/>
    </edge>
    <edge id=":26726583_11" function="internal">
        <lane id=":26726583_11_0" index="0" disallow="tram rail_urban rail rail_electric rail_fast ship" speed="2.78" length="4.67" shape="448.33,771.11 447.76,772.44 447.05,772.98 446.19,772.73 445.18,771.69"/>
    </edge>
    <edge id=":26726583_12" function="internal">
        <lane id=":26726583_12_0" index="0" disallow="tram rail_urban rail rail_electric rail_fast ship" speed="2.78" length="9.04" shape="440.69,778.22 443.04,777.43 444.57,776.08 445.28,774.16 445.18,771.69"/>
    </edge>
    <edge id=":26726583_13" function="internal">
        <lane id=":26726583_13_0" index="0" disallow="tram rail_urban rail rail_electric rail_fast ship" speed="2.78" length="10.86" shape="440.69,778.22 451.39,776.36"/>
    </edge>
    <edge id=":26726583_14" function="internal">
        <lane id=":26726583_14_0" index="0" disallow="tram rail_urban rail rail_electric rail_fast ship" speed="2.78" length="13.52" shape="440.69,778.22 443.92,778.44 447.08,779.97 449.61,782.42 450.96,785.37"/>
    </edge>
    <edge id=":26726583_15" function="internal">
        <lane id=":26726583_15_0" index="0" disallow="tram rail_urban rail rail_electric rail_fast ship" speed="2.78" length="4.67" shape="440.69,778.22 442.01,778.79 442.55,779.50 442.30,780.36 441.27,781.36"/>
    </edge>
    <edge id=":26726598_0" function="internal">
        <lane id=":26726598_0_0" index="0" disallow="tram rail_urban rail rail_electric rail_fast ship" speed="2.78" length="4.67" shape="1123.16,654.31 1124.48,654.89 1125.02,655.61 1124.76,656.47 1123.72,657.47"/>
    </edge>
    <edge id=":26726602_0" function="internal">
        <lane id=":26726602_0_0" index="0" disallow="tram rail_urban rail rail_electric rail_fast ship" speed="2.78" length="4.67" shape="900.27,486.40 901.59,486.99 902.12,487.71 901.86,488.56 900.81,489.56"/>
    </edge>
    <edge id=":26736346_0" function="internal">
        <lane id=":26736346_0_0" index="0" disallow="bicycle tram rail_urban rail rail_electric rail_fast ship" speed="3.65" length="4.67" shape="165.65,61.41 165.91,59.99 166.48,59.30 167.38,59.35 168.59,60.13"/>
    </edge>
    <edge id=":26756818_0" function="internal">
        <lane id=":26756818_0_0" index="0" disallow="tram rail_urban rail rail_electric rail_fast ship" speed="2.78" length="9.05" shape="138.52,797.95 135.99,797.97 134.18,798.81 133.09,800.48 132.72,802.98"/>
    </edge>
    <edge id=":26756818_1" function="internal">