<additional xmlns:xsi="http://www.w3.org/2001/XMLSchema-instance" xsi:noNamespaceSchemaLocation="http://sumo.dlr.de/xsd/additional_file.xsd">
    
    
    
    
    
    
    
    
    <vTypeDistribution id="vehDist">
        <vType id="vehDist0" accel="0.949" maxSpeed="7.135" decel="0.825" speedDev="0.000" speedFactor="4.000" tau="3.000" vClass="bicycle">
            <param key="has.fcd.device" value="true"/>
        </vType>
        <vType id="vehDist1" accel="0.710" maxSpeed="6.518" decel="0.673" speedDev="0.000" speedFactor="4.000" tau="3.000" vClass="bicycle">
            <param key="has.fcd.device" value="true"/>
        </vType>
        <vType id="vehDist2" accel="0.684" maxSpeed="7.109" decel="0.613" speedDev="0.000" speedFactor="4.000" tau="3.000" vClass="bicycle">
            <param key="has.fcd.device" value="true"/>
        </vType>
        <vType id="vehDist3" accel="1.002" maxSpeed="5.817" decel="1.208" speedDev="0.000" speedFactor="4.000" tau="3.000" vClass="bicycle">
            <param key="has.fcd.device" value="true"/>
        </vType>
        <vType id="vehDist4" accel="1.021" maxSpeed="5.565" decel="0.732" speedDev="0.000" speedFactor="4.000" tau="3.000" vClass="bicycle">
            <param key="has.fcd.device" value="true"/>
        </vType>
        <vType id="vehDist5" accel="1.056" maxSpeed="6.530" decel="0.889" speedDev="0.000" speedFactor="4.000" tau="3.000" vClass="bicycle">
            <param key="has.fcd.device" value="true"/>
        </vType>
        <vType id="vehDist6" accel="1.070" maxSpeed="6.107" decel="0.728" speedDev="0.000" speedFactor="4.000" tau="3.000" vClass="bicycle">
            <param key="has.fcd.device" value="true"/>
        </vType>
        <vType id="vehDist7" accel="1.027" maxSpeed="6.269" decel="1.068" speedDev="0.000" speedFactor="4.000" tau="3.000" vClass="bicycle">
            <param key="has.fcd.device" value="true"/>
        </vType>
        <vType id="vehDist8" accel="0.843" maxSpeed="6.422" decel="0.785" speedDev="0.000" speedFactor="4.000" tau="3.000" vClass="bicycle">
            <param key="has.fcd.device" value="true"/>
        </vType>
        <vType id="vehDist9" accel="1.006" maxSpeed="8.046" decel="0.940" speedDev="0.000" speedFactor="4.000" tau="3.000" vClass="bicycle">
            <param key="has.fcd.device" value="true"/>
        </vType>
        <vType id="vehDist10" accel="0.953" maxSpeed="6.439" decel="0.935" speedDev="0.000" speedFactor="4.000" tau="3.000" vClass="bicycle">
            <param key="has.fcd.device" value="true"/>
        </vType>
        <vType id="vehDist11" accel="0.943" maxSpeed="7.163" decel="0.804" speedDev="0.000" speedFactor="4.000" tau="3.000" vClass="bicycle">
            <param key="has.fcd.device" value="true"/>
        </vType>
        <vType id="vehDist12" accel="0.802" maxSpeed="6.862" decel="0.678" speedDev="0.000" speedFactor="4.000" tau="3.000" vClass="bicycle">
            <param key="has.fcd.device" value="true"/>
        </vType>
        <vType id="vehDist13" accel="1.080" maxSpeed="8.161" decel="1.018" speedDev="0.000" speedFactor="4.000" tau="3.000" vClass="bicycle">
            <param key="has.fcd.device" value="true"/>
        </vType>
        <vType id="vehDist14" accel="0.724" maxSpeed="5.868" decel="1.271" speedDev="0.000" speedFactor="4.000" tau="3.000" vClass="bicycle">
            <param key="has.fcd.device" value="true"/>
        </vType>
        <vType id="vehDist15" accel="0.880" maxSpeed="6.261" decel="0.878" speedDev="0.000" speedFactor="4.000" tau="3.000" vClass="bicycle">
            <param key="has.fcd.device" value="true"/>
        </vType>
        <vType id="vehDist16" accel="1.240" maxSpeed="7.480" decel="1.351" speedDev="0.000" speedFactor="4.000" tau="3.000" vClass="bicycle">
            <param key="has.fcd.device" value="true"/>
        </vType>
        <vType id="vehDist17" accel="0.708" maxSpeed="5.634" decel="0.999" speedDev="0.000" speedFactor="4.000" tau="3.000" vClass="bicycle">
            <param key="has.fcd.device" value="true"/>
        </vType>
        <vType id="vehDist18" accel="0.992" maxSpeed="7.591" decel="0.765" speedDev="0.000" speedFactor="4.000" tau="3.000" vClass="bicycle">
            <param key="has.fcd.device" value="true"/>
        </vType>
        <vType id="vehDist19" accel="1.005" maxSpeed="6.423" decel="0.831" speedDev="0.000" speedFactor="4.000" tau="3.000" vClass="bicycle">
            <param key="has.fcd.device" value="true"/>
        </vType>
        <vType id="vehDist20" accel="1.360" maxSpeed="7.165" decel="1.194" speedDev="0.000" speedFactor="4.000" tau="3.000" vClass="bicycle">
            <param key="has.fcd.device" value="true"/>
        </vType>
        <vType id="vehDist21" accel="1.375" maxSpeed="6.293" decel="0.910" speedDev="0.000" speedFactor="4.000" tau="3.000" vClass="bicycle">
            <param key="has.fcd.device" value="true"/>
        </vType>
        <vType id="vehDist22" accel="1.003" maxSpeed="6.054" decel="0.698" speedDev="0.000" speedFactor="4.000" tau="3.000" vClass="bicycle">
            <param key="has.fcd.device" value="true"/>
        </vType>
        <vType id="vehDist23" accel="0.745" maxSpeed="5.558" decel="0.534" speedDev="0.000" speedFactor="4.000" tau="3.000" vClass="bicycle">
            <param key="has.fcd.device" value="true"/>
        </vType>
        <vType id="vehDist24" accel="0.973" maxSpeed="6.424" decel="0.880" speedDev="0.000" speedFactor="4.000" tau="3.000" vClass="bicycle">
            <param key="has.fcd.device" value="true"/>
        </vType>
        <vType id="vehDist25" accel="0.867" maxSpeed="6.690" decel="0.891" speedDev="0.000" speedFactor="4.000" tau="3.000" vClass="bicycle">
            <param key="has.fcd.device" value="true"/>
        </vType>
        <vType id="vehDist26" accel="0.833" maxSpeed="7.907" decel="0.851" speedDev="0.000" speedFactor="4.000" tau="3.000" vClass="bicycle">
            <param key="has.fcd.device" value="true"/>
        </vType>
        <vType id="vehDist27" accel="0.933" maxSpeed="6.196" decel="1.239" speedDev="0.000" speedFactor="4.000" tau="3.000" vClass="bicycle">
            <param key="has.fcd.device" value="true"/>
        </vType>
        <vType id="vehDist28" accel="1.189" maxSpeed="6.359" decel="0.791" speedDev="0.000" speedFactor="4.000" tau="3.000" vClass="bicycle">
            <param key="has.fcd.device" value="true"/>
        </vType>
        <vType id="vehDist29" accel="0.971" maxSpeed="6.809" decel="0.740" speedDev="0.000" speedFactor="4.000" tau="3.000" vClass="bicycle">
            <param key="has.fcd.device" value="true"/>
        </vType>
        <vType id="vehDist30" accel="1.134" maxSpeed="7.159" decel="0.658" speedDev="0.000" speedFactor="4.000" tau="3.000" vClass="bicycle">
            <param key="has.fcd.device" value="true"/>
        </vType>
        <vType id="vehDist31" accel="1.054" maxSpeed="6.511" decel="0.531" speedDev="0.000" speedFactor="4.000" tau="3.000" vClass="bicycle">
            <param key="has.fcd.device" value="true"/>
        </vType>
        <vType id="vehDist32" accel="0.768" maxSpeed="6.693" decel="0.779" speedDev="0.000" speedFactor="4.000" tau="3.000" vClass="bicycle">
            <param key="has.fcd.device" value="true"/>
        </vType>
        <vType id="vehDist33" accel="1.174" maxSpeed="6.397" decel="0.577" speedDev="0.000" speedFactor="4.000" tau="3.000" vClass="bicycle">
            <param key="has.fcd.device" value="true"/>
        </vType>
        <vType id="vehDist34" accel="0.902" maxSpeed="8.053" decel="0.815" speedDev="0.000" speedFactor="4.000" tau="3.000" vClass="bicycle">
            <param key="has.fcd.device" value="true"/>
        </vType>
        <vType id="vehDist35" accel="1.082" maxSpeed="6.965" decel="0.922" speedDev="0.000" speedFactor="4.000" tau="3.000" vClass="bicycle">
            <param key="has.fcd.device" value="true"/>
        </vType>
        <vType id="vehDist36" accel="1.146" maxSpeed="5.904" decel="0.730" speedDev="0.000" speedFactor="4.000" tau="3.000" vClass="bicycle">
            <param key="has.fcd.device" value="true"/>
        </vType>
        <vType id="vehDist37" accel="1.163" maxSpeed="6.120" decel="0.887" speedDev="0.000" speedFactor="4.000" tau="3.000" vClass="bicycle">
            <param key="has.fcd.device" value="true"/>
        </vType>
        <vType id="vehDist38" accel="0.860" maxSpeed="7.446" decel="0.659" speedDev="0.000" speedFactor="4.000" tau="3.000" vClass="bicycle">
            <param key="has.fcd.device" value="true"/>
        </vType>
        <vType id="vehDist39" accel="1.175" maxSpeed="6.173" decel="0.916" speedDev="0.000" speedFactor="4.000" tau="3.000" vClass="bicycle">
            <param key="has.fcd.device" value="true"/>
        </vType>
        <vType id="vehDist40" accel="0.888" maxSpeed="6.866" decel="1.241" speedDev="0.000" speedFactor="4.000" tau="3.000" vClass="bicycle">
            <param key="has.fcd.device" value="true"/>
        </vType>
        <vType id="vehDist41" accel="0.844" maxSpeed="7.066" decel="1.130" speedDev="0.000" speedFactor="4.000" tau="3.000" vClass="bicycle">
            <param key="has.fcd.device" value="true"/>
        </vType>
        <vType id="vehDist42" accel="0.892" maxSpeed="6.446" decel="0.523" speedDev="0.000" speedFactor="4.000" tau="3.000" vClass="bicycle">
            <param key="has.fcd.device" value="true"/>
        </vType>
        <vType id="vehDist43" accel="0.812" maxSpeed="6.153" decel="0.603" speedDev="0.000" speedFactor="4.000" tau="3.000" vClass="bicycle">
            <param key="has.fcd.device" value="true"/>
        </vType>
        <vType id="vehDist44" accel="1.245" maxSpeed="6.825" decel="0.797" speedDev="0.000" speedFactor="4.000" tau="3.000" vClass="bicycle">
            <param key="has.fcd.device" value="true"/>
        </vType>
        <vType id="vehDist45" accel="1.077" maxSpeed="7.291" decel="1.026" speedDev="0.000" speedFactor="4.000" tau="3.000" vClass="bicycle">
            <param key="has.fcd.device" value="true"/>
        </vType>
        <vType id="vehDist46" accel="1.131" maxSpeed="5.698" decel="0.512" speedDev="0.000" speedFactor="4.000" tau="3.000" vClass="bicycle">
            <param key="has.fcd.device" value="true"/>
        </vType>
        <vType id="vehDist47" accel="1.094" maxSpeed="6.815" decel="0.554" speedDev="0.000" speedFactor="4.000" tau="3.000" vClass="bicycle">
            <param key="has.fcd.device" value="true"/>
        </vType>
        <vType id="vehDist48" accel="0.930" maxSpeed="7.017" decel="0.895" speedDev="0.000" speedFactor="4.000" tau="3.000" vClass="bicycle">
            <param key="has.fcd.device" value="true"/>
        </vType>
        <vType id="vehDist49" accel="1.027" maxSpeed="6.828" decel="0.968" speedDev="0.000" speedFactor="4.000" tau="3.000" vClass="bicycle">
            <param key="has.fcd.device" value="true"/>
        </vType>
        <vType id="vehDist50" accel="0.978" maxSpeed="6.708" decel="1.166" speedDev="0.000" speedFactor="4.000" tau="3.000" vClass="bicycle">
            <param key="has.fcd.device" value="true"/>
        </vType>
        <vType id="vehDist51" accel="1.250" maxSpeed="7.080" decel="0.605" speedDev="0.000" speedFactor="4.000" tau="3.000" vClass="bicycle">
            <param key="has.fcd.device" value="true"/>
        </vType>
        <vType id="vehDist52" accel="1.063" maxSpeed="8.256" decel="0.880" speedDev="0.000" speedFactor="4.000" tau="3.000" vClass="bicycle">
            <param key="has.fcd.device" value="true"/>
        </vType>
        <vType id="vehDist53" accel="1.056" maxSpeed="6.261" decel="1.035" speedDev="0.000" speedFactor="4.000" tau="3.000" vClass="bicycle">
            <param key="has.fcd.device" value="true"/>
        </vType>
        <vType id="vehDist54" accel="0.654" maxSpeed="5.939" decel="0.885" speedDev="0.000" speedFactor="4.000" tau="3.000" vClass="bicycle">
            <param key="has.fcd.device" value="true"/>
        </vType>
        <vType id="vehDist55" accel="0.911" maxSpeed="6.737" decel="1.004" speedDev="0.000" speedFactor="4.000" tau="3.000" vClass="bicycle">
            <param key="has.fcd.device" value="true"/>
        </vType>
        <vType id="vehDist56" accel="1.185" maxSpeed="6.710" decel="0.589" speedDev="0.000" speedFactor="4.000" tau="3.000" vClass="bicycle">
            <param key="has.fcd.device" value="true"/>
        </vType>
        <vType id="vehDist57" accel="1.163" maxSpeed="5.896" decel="0.669" speedDev="0.000" speedFactor="4.000" tau="3.000" vClass="bicycle">
            <param key="has.fcd.device" value="true"/>
        </vType>
        <vType id="vehDist58" accel="0.834" maxSpeed="7.010" decel="0.764" speedDev="0.000" speedFactor="4.000" tau="3.000" vClass="bicycle">
            <param key="has.fcd.device" value="true"/>
        </vType>
        <vType id="vehDist59" accel="0.848" maxSpeed="7.257" decel="0.991" speedDev="0.000" speedFactor="4.000" tau="3.000" vClass="bicycle">
            <param key="has.fcd.device" value="true"/>
        </vType>
        <vType id="vehDist60" accel="0.909" maxSpeed="7.479" decel="0.649" speedDev="0.000" speedFactor="4.000" tau="3.000" vClass="bicycle">
            <param key="has.fcd.device" value="true"/>
        </vType>
        <vType id="vehDist61" accel="0.866" maxSpeed="6.582" decel="0.883" speedDev="0.000" speedFactor="4.000" tau="3.000" vClass="bicycle">
            <param key="has.fcd.device" value="true"/>
        </vType>
        <vType id="vehDist62" accel="0.984" maxSpeed="6.050" decel="0.914" speedDev="0.000" speedFactor="4.000" tau="3.000" vClass="bicycle">
            <param key="has.fcd.device" value="true"/>
        </vType>
        <vType id="vehDist63" accel="0.934" maxSpeed="5.771" decel="0.508" speedDev="0.000" speedFactor="4.000" tau="3.000" vClass="bicycle">
            <param key="has.fcd.device" value="true"/>
        </vType>
        <vType id="vehDist64" accel="0.856" maxSpeed="7.803" decel="1.215" speedDev="0.000" speedFactor="4.000" tau="3.000" vClass="bicycle">
            <param key="has.fcd.device" value="true"/>
        </vType>
        <vType id="vehDist65" accel="0.934" maxSpeed="7.933" decel="0.820" speedDev="0.000" speedFactor="4.000" tau="3.000" vClass="bicycle">
            <param key="has.fcd.device" value="true"/>
        </vType>
        <vType id="vehDist66" accel="0.819" maxSpeed="6.244" decel="0.941" speedDev="0.000" speedFactor="4.000" tau="3.000" vClass="bicycle">
            <param key="has.fcd.device" value="true"/>
        </vType>
        <vType id="vehDist67" accel="1.113" maxSpeed="5.770" decel="0.917" speedDev="0.000" speedFactor="4.000" tau="3.000" vClass="bicycle">
            <param key="has.fcd.device" value="true"/>
        </vType>
        <vType id="vehDist68" accel="0.886" maxSpeed="8.115" decel="0.758" speedDev="0.000" speedFactor="4.000" tau="3.000" vClass="bicycle">
            <param key="has.fcd.device" value="true"/>
        </vType>
        <vType id="vehDist69" accel="0.947" maxSpeed="6.837" decel="0.680" speedDev="0.000" speedFactor="4.000" tau="3.000" vClass="bicycle">
            <param key="has.fcd.device" value="true"/>
        </vType>
        <vType id="vehDist70" accel="1.025" maxSpeed="6.583" decel="0.971" speedDev="0.000" speedFactor="4.000" tau="3.000" vClass="bicycle">
            <param key="has.fcd.device" value="true"/>
        </vType>
        <vType id="vehDist71" accel="1.067" maxSpeed="6.833" decel="0.925" speedDev="0.000" speedFactor="4.000" tau="3.000" vClass="bicycle">
            <param key="has.fcd.device" value="true"/>
        </vType>
        <vType id="vehDist72" accel="0.794" maxSpeed="6.337" decel="1.037" speedDev="0.000" speedFactor="4.000" tau="3.000" vClass="bicycle">
            <param key="has.fcd.device" value="true"/>
        </vType>
        <vType id="vehDist73" accel="0.631" maxSpeed="8.109" decel="0.714" speedDev="0.000" speedFactor="4.000" tau="3.000" vClass="bicycle">
            <param key="has.fcd.device" value="true"/>
        </vType>
        <vType id="vehDist74" accel="0.769" maxSpeed="6.455" decel="1.022" speedDev="0.000" speedFactor="4.000" tau="3.000" vClass="bicycle">
            <param key="has.fcd.device" value="true"/>
        </vType>
        <vType id="vehDist75" accel="1.364" maxSpeed="6.655" decel="1.351" speedDev="0.000" speedFactor="4.000" tau="3.000" vClass="bicycle">
            <param key="has.fcd.device" value="true"/>
        </vType>
        <vType id="vehDist76" accel="0.832" maxSpeed="6.510" decel="0.708" speedDev="0.000" speedFactor="4.000" tau="3.000" vClass="bicycle">
            <param key="has.fcd.device" value="true"/>
        </vType>
        <vType id="vehDist77" accel="0.656" maxSpeed="7.112" decel="0.493" speedDev="0.000" speedFactor="4.000" tau="3.000" vClass="bicycle">
            <param key="has.fcd.device" value="true"/>
        </vType>
        <vType id="vehDist78" accel="0.843" maxSpeed="7.330" decel="1.098" speedDev="0.000" speedFactor="4.000" tau="3.000" vClass="bicycle">
            <param key="has.fcd.device" value="true"/>
        </vType>
        <vType id="vehDist79" accel="1.311" maxSpeed="6.914" decel="0.985" speedDev="0.000" speedFactor="4.000" tau="3.000" vClass="bicycle">
            <param key="has.fcd.device" value="true"/>
        </vType>
        <vType id="vehDist80" accel="1.049" maxSpeed="6.072" decel="0.890" speedDev="0.000" speedFactor="4.000" tau="3.000" vClass="bicycle">
            <param key="has.fcd.device" value="true"/>
        </vType>
        <vType id="vehDist81" accel="0.741" maxSpeed="5.762" decel="1.055" speedDev="0.000" speedFactor="4.000" tau="3.000" vClass="bicycle">
            <param key="has.fcd.device" value="true"/>
        </vType>
        <vType id="vehDist82" accel="0.784" maxSpeed="5.549" decel="1.164" speedDev="0.000" speedFactor="4.000" tau="3.000" vClass="bicycle">
            <param key="has.fcd.device" value="true"/>
        </vType>
        <vType id="vehDist83" accel="0.780" maxSpeed="6.298" decel="0.751" speedDev="0.000" speedFactor="4.000" tau="3.000" vClass="bicycle">
            <param key="has.fcd.device" value="true"/>
        </vType>
        <vType id="vehDist84" accel="0.653" maxSpeed="6.424" decel="1.195" speedDev="0.000" speedFactor="4.000" tau="3.000" vClass="bicycle">
            <param key="has.fcd.device" value="true"/>
        </vType>
        <vType id="vehDist85" accel="0.950" maxSpeed="6.163" decel="0.897" speedDev="0.000" speedFactor="4.000" tau="3.000" vClass="bicycle">
            <param key="has.fcd.device" value="true"/>
        </vType>
        <vType id="vehDist86" accel="1.228" maxSpeed="7.931" decel="0.783" speedDev="0.000" speedFactor="4.000" tau="3.000" vClass="bicycle">
            <param key="has.fcd.device" value="true"/>
        </vType>
        <vType id="vehDist87" accel="0.636" maxSpeed="6.748" decel="1.224" speedDev="0.000" speedFactor="4.000" tau="3.000" vClass="bicycle">
            <param key="has.fcd.device" value="true"/>
        </vType>
        <vType id="vehDist88" accel="1.001" maxSpeed="7.228" decel="0.908" speedDev="0.000" speedFactor="4.000" tau="3.000" vClass="bicycle">
            <param key="has.fcd.device" value="true"/>
        </vType>
        <vType id="vehDist89" accel="0.797" maxSpeed="6.460" decel="0.873" speedDev="0.000" speedFactor="4.000" tau="3.000" vClass="bicycle">
            <param key="has.fcd.device" value="true"/>
        </vType>
        <vType id="vehDist90" accel="1.008" maxSpeed="6.600" decel="0.727" speedDev="0.000" speedFactor="4.000" tau="3.000" vClass="bicycle">
            <param key="has.fcd.device" value="true"/>
        </vType>
        <vType id="vehDist91" accel="0.806" maxSpeed="6.217" decel="0.920" speedDev="0.000" speedFactor="4.000" tau="3.000" vClass="bicycle">
            <param key="has.fcd.device" value="true"/>
        </vType>
        <vType id="vehDist92" accel="1.039" maxSpeed="6.850" decel="0.682" speedDev="0.000" speedFactor="4.000" tau="3.000" vClass="bicycle">
            <param key="has.fcd.device" value="true"/>
        </vType>
        <vType id="vehDist93" accel="0.780" maxSpeed="6.407" decel="0.651" speedDev="0.000" speedFactor="4.000" tau="3.000" vClass="bicycle">
            <param key="has.fcd.device" value="true"/>
        </vType>
        <vType id="vehDist94" accel="1.216" maxSpeed="6.684" decel="0.718" speedDev="0.000" speedFactor="4.000" tau="3.000" vClass="bicycle">
            <param key="has.fcd.device" value="true"/>
        </vType>
        <vType id="vehDist95" accel="1.058" maxSpeed="7.518" decel="0.864" speedDev="0.000" speedFactor="4.000" tau="3.000" vClass="bicycle">
            <param key="has.fcd.device" value="true"/>
        </vType>
        <vType id="vehDist96" accel="1.031" maxSpeed="6.042" decel="0.812" speedDev="0.000" speedFactor="4.000" tau="3.000" vClass="bicycle">
            <param key="has.fcd.device" value="true"/>
        </vType>
        <vType id="vehDist97" accel="0.653" maxSpeed="6.210" decel="0.583" speedDev="0.000" speedFactor="4.000" tau="3.000" vClass="bicycle">
            <param key="has.fcd.device" value="true"/>
        </vType>
        <vType id="vehDist98" accel="1.234" maxSpeed="7.813" decel="0.878" speedDev="0.000" speedFactor="4.000" tau="3.000" vClass="bicycle">
            <param key="has.fcd.device" value="true"/>
        </vType>
        <vType id="vehDist99" accel="1.117" maxSpeed="6.510" decel="0.922" speedDev="0.000" speedFactor="4.000" tau="3.000" vClass="bicycle">
            <param key="has.fcd.device" value="true"/>
        </vType>
    </vTypeDistribution>
    
    
    
    




</additional>
