<?xml version="1.0" encoding="UTF-8"?>

<!-- generated on 2023-01-15 21:21:37 by Eclipse SUMO netedit Version v1_15_0+1445-9ed6055add5
-->

<additional xmlns:xsi="http://www.w3.org/2001/XMLSchema-instance" xsi:noNamespaceSchemaLocation="http://sumo.dlr.de/xsd/additional_file.xsd">
    <vType id="vehDist" vClass="bicycle">
        <param key="has.fcd.device" value="true"/>
    </vType>
</additional>
