<?xml version="1.0" encoding="UTF-8"?>

<!-- generated on Di 08 Feb 2022 11:55:21 CET by Eclipse SUMO netedit Version v1_7_0+1228-0b1a97d77e
<configuration xmlns:xsi="http://www.w3.org/2001/XMLSchema-instance" xsi:noNamespaceSchemaLocation="http://sumo.dlr.de/xsd/netconvertConfiguration.xsd">

    <input>
        <sumo-net-file value="/home/kons/GIT/ma_paper/im_impl/mehringdamm_default/osm.net.xml"/>
    </input>

    <output>
        <output-file value="/home/kons/GIT/ma_paper/im_impl/mehringdamm_default/osm.net.xml"/>
    </output>

    <processing>
        <geometry.min-radius.fix.railways value="false"/>
        <geometry.max-grade.fix value="false"/>
        <offset.disable-normalization value="true"/>
        <lefthand value="false"/>
    </processing>

    <junctions>
        <no-turnarounds value="true"/>
        <junctions.corner-detail value="5"/>
        <junctions.limit-turn-speed value="5.5"/>
        <rectangular-lane-cut value="false"/>
    </junctions>

    <pedestrian>
        <walkingareas value="false"/>
    </pedestrian>

    <report>
        <aggregate-warnings value="5"/>
    </report>

</configuration>
-->

<net version="1.6" junctionCornerDetail="5" limitTurnSpeed="5.50" xmlns:xsi="http://www.w3.org/2001/XMLSchema-instance" xsi:noNamespaceSchemaLocation="http://sumo.dlr.de/xsd/net_file.xsd">

    <location netOffset="-389793.10,-5814617.44" convBoundary="0.00,1840.65,1437.97,2897.21" origBoundary="13.376777,52.470694,13.420692,52.505501" projParameter="+proj=utm +zone=33 +ellps=WGS84 +datum=WGS84 +units=m +no_defs"/>

    <type id="highway.bridleway" priority="1" numLanes="1" speed="2.78" allow="pedestrian" oneway="1" width="2.00"/>
    <type id="highway.bus_guideway" priority="1" numLanes="1" speed="27.78" allow="bus" oneway="1"/>
    <type id="highway.cycleway" priority="1" numLanes="1" speed="8.33" allow="bicycle" oneway="0" width="1.00"/>
    <type id="highway.footway" priority="1" numLanes="1" speed="2.78" allow="pedestrian" oneway="1" width="2.00"/>
    <type id="highway.ford" priority="1" numLanes="1" speed="2.78" allow="army" oneway="0"/>
    <type id="highway.living_street" priority="2" numLanes="1" speed="2.78" disallow="tram rail_urban rail rail_electric rail_fast ship" oneway="0"/>
    <type id="highway.motorway" priority="14" numLanes="2" speed="39.44" allow="private emergency authority army vip passenger hov taxi bus coach delivery truck trailer motorcycle evehicle custom1 custom2" oneway="1"/>
    <type id="highway.motorway_link" priority="9" numLanes="1" speed="22.22" allow="private emergency authority army vip passenger hov taxi bus coach delivery truck trailer motorcycle evehicle custom1 custom2" oneway="1"/>
    <type id="highway.path" priority="1" numLanes="1" speed="2.78" allow="pedestrian bicycle" oneway="0" width="2.00"/>
    <type id="highway.pedestrian" priority="1" numLanes="1" speed="2.78" allow="pedestrian" oneway="1" width="2.00"/>
    <type id="highway.primary" priority="12" numLanes="2" speed="27.78" disallow="tram rail_urban rail rail_electric rail_fast ship" oneway="0"/>
    <type id="highway.primary_link" priority="7" numLanes="1" speed="22.22" disallow="tram rail_urban rail rail_electric rail_fast ship" oneway="0"/>
    <type id="highway.raceway" priority="15" numLanes="2" speed="83.33" allow="vip" oneway="0"/>
    <type id="highway.residential" priority="3" numLanes="1" speed="13.89" disallow="tram rail_urban rail rail_electric rail_fast ship" oneway="0"/>
    <type id="highway.secondary" priority="11" numLanes="1" speed="27.78" disallow="tram rail_urban rail rail_electric rail_fast ship" oneway="0"/>
    <type id="highway.secondary_link" priority="6" numLanes="1" speed="22.22" disallow="tram rail_urban rail rail_electric rail_fast ship" oneway="0"/>
    <type id="highway.service" priority="1" numLanes="1" speed="5.56" allow="pedestrian delivery bicycle" oneway="0"/>
    <type id="highway.stairs" priority="1" numLanes="1" speed="1.39" allow="pedestrian" oneway="1" width="2.00"/>
    <type id="highway.step" priority="1" numLanes="1" speed="1.39" allow="pedestrian" oneway="1" width="2.00"/>
    <type id="highway.steps" priority="1" numLanes="1" speed="1.39" allow="pedestrian" oneway="1" width="2.00"/>
    <type id="highway.tertiary" priority="10" numLanes="1" speed="22.22" disallow="tram rail_urban rail rail_electric rail_fast ship" oneway="0"/>
    <type id="highway.tertiary_link" priority="5" numLanes="1" speed="22.22" disallow="tram rail_urban rail rail_electric rail_fast ship" oneway="0"/>
    <type id="highway.track" priority="1" numLanes="1" speed="5.56" allow="pedestrian motorcycle moped bicycle" oneway="0"/>
    <type id="highway.trunk" priority="13" numLanes="2" speed="27.78" disallow="pedestrian bicycle tram rail_urban rail rail_electric rail_fast ship" oneway="0"/>
    <type id="highway.trunk_link" priority="8" numLanes="1" speed="22.22" disallow="pedestrian bicycle tram rail_urban rail rail_electric rail_fast ship" oneway="0"/>
    <type id="highway.unclassified" priority="4" numLanes="1" speed="13.89" disallow="tram rail_urban rail rail_electric rail_fast ship" oneway="0"/>
    <type id="highway.unsurfaced" priority="1" numLanes="1" speed="8.33" disallow="tram rail_urban rail rail_electric rail_fast ship" oneway="0"/>
    <type id="railway.highspeed" priority="21" numLanes="1" speed="69.44" allow="rail_fast" oneway="1"/>
    <type id="railway.light_rail" priority="19" numLanes="1" speed="27.78" allow="rail_urban" oneway="1"/>
    <type id="railway.preserved" priority="16" numLanes="1" speed="27.78" allow="rail" oneway="1"/>
    <type id="railway.rail" priority="20" numLanes="1" speed="44.44" allow="rail" oneway="1"/>
    <type id="railway.subway" priority="18" numLanes="1" speed="27.78" allow="rail_urban" oneway="1"/>
    <type id="railway.tram" priority="17" numLanes="1" speed="13.89" allow="tram" oneway="1"/>

    <edge id=":1003648307_0" function="internal">
        <lane id=":1003648307_0_0" index="0" allow="bicycle" speed="13.89" length="0.33" width="1.00" shape="955.33,2393.06 955.26,2392.70"/>
        <lane id=":1003648307_0_1" index="1" disallow="bicycle tram rail_urban rail rail_electric rail_fast ship" speed="13.89" length="0.33" shape="957.38,2392.63 957.32,2392.33"/>
    </edge>
    <edge id=":1003648307_2" function="internal">
        <lane id=":1003648307_2_0" index="0" disallow="bicycle tram rail_urban rail rail_electric rail_fast ship" speed="3.65" length="2.34" shape="957.38,2392.63 957.91,2391.29 958.61,2390.73"/>
    </edge>
    <edge id=":1003648307_6" function="internal">
        <lane id=":1003648307_6_0" index="0" disallow="bicycle tram rail_urban rail rail_electric rail_fast ship" speed="3.65" length="2.34" shape="958.61,2390.73 959.48,2390.95 960.51,2391.96"/>
    </edge>
    <edge id=":1003648307_3" function="internal">
        <lane id=":1003648307_3_0" index="0" allow="bicycle" speed="13.89" length="0.17" width="1.00" shape="962.54,2391.39 962.57,2391.52"/>
        <lane id=":1003648307_3_1" index="1" disallow="bicycle tram rail_urban rail rail_electric rail_fast ship" speed="13.89" length="0.17" shape="960.47,2391.76 960.51,2391.96"/>
    </edge>
    <edge id=":1003648307_5" function="internal">
        <lane id=":1003648307_5_0" index="0" disallow="bicycle tram rail_urban rail rail_electric rail_fast ship" speed="3.65" length="2.34" shape="960.47,2391.76 959.90,2393.08 959.18,2393.62"/>
    </edge>
    <edge id=":1003648307_7" function="internal">
        <lane id=":1003648307_7_0" index="0" disallow="bicycle tram rail_urban rail rail_electric rail_fast ship" speed="3.65" length="2.34" shape="959.18,2393.62 958.32,2393.37 957.32,2392.33"/>
    </edge>
    <edge id=":1227879808_0" function="internal">
        <lane id=":1227879808_0_0" index="0" allow="bicycle" speed="13.89" length="8.26" width="1.00" shape="878.53,2400.86 880.84,2400.24 882.49,2400.08 884.13,2399.90 886.43,2399.27"/>
        <lane id=":1227879808_0_1" index="1" disallow="bicycle tram rail_urban rail rail_electric rail_fast ship" speed="13.89" length="8.26" shape="880.28,2405.87 882.45,2404.76 883.71,2403.57 884.97,2402.36 887.14,2401.25"/>
        <lane id=":1227879808_0_2" index="2" disallow="bicycle tram rail_urban rail rail_electric rail_fast ship" speed="13.89" length="8.26" shape="881.34,2408.89 883.51,2407.78 884.78,2406.58 886.04,2405.38 888.21,2404.27"/>
    </edge>
    <edge id=":1283139119_0" function="internal">
        <lane id=":1283139119_0_0" index="0" allow="bicycle" speed="13.89" length="0.29" width="1.00" shape="555.64,2155.48 555.35,2155.48"/>
        <lane id=":1283139119_0_1" index="1" disallow="bicycle tram rail_urban rail rail_electric rail_fast ship" speed="13.89" length="0.29" shape="555.69,2153.38 555.39,2153.38"/>
    </edge>
    <edge id=":1283139119_2" function="internal">
        <lane id=":1283139119_2_0" index="0" disallow="bicycle tram rail_urban rail rail_electric rail_fast ship" speed="3.65" length="2.34" shape="555.69,2153.38 554.51,2152.55 554.13,2151.74"/>
    </edge>
    <edge id=":1283139119_6" function="internal">
        <lane id=":1283139119_6_0" index="0" disallow="bicycle tram rail_urban rail rail_electric rail_fast ship" speed="3.65" length="2.34" shape="554.13,2151.74 554.55,2150.95 555.77,2150.18"/>
    </edge>
    <edge id=":1283139119_3" function="internal">
        <lane id=":1283139119_3_0" index="0" allow="bicycle" speed="13.89" length="0.31" width="1.00" shape="555.51,2148.08 555.82,2148.08"/>
        <lane id=":1283139119_3_1" index="1" disallow="bicycle tram rail_urban rail rail_electric rail_fast ship" speed="13.89" length="0.31" shape="555.47,2150.18 555.77,2150.18"/>
    </edge>
    <edge id=":1283139119_5" function="internal">
        <lane id=":1283139119_5_0" index="0" disallow="bicycle tram rail_urban rail rail_electric rail_fast ship" speed="3.65" length="2.34" shape="555.47,2150.18 556.65,2151.00 557.03,2151.81"/>
    </edge>
    <edge id=":1283139119_7" function="internal">
        <lane id=":1283139119_7_0" index="0" disallow="bicycle tram rail_urban rail rail_electric rail_fast ship" speed="3.65" length="2.34" shape="557.03,2151.81 556.61,2152.60 555.39,2153.38"/>
    </edge>
    <edge id=":162369688_0" function="internal">
        <lane id=":162369688_0_0" index="0" allow="bicycle" speed="13.89" length="7.70" width="1.00" shape="887.35,2741.78 888.07,2744.10 888.89,2745.61 889.63,2747.12 890.11,2749.48"/>
        <lane id=":162369688_0_1" index="1" disallow="bicycle tram rail_urban rail rail_electric rail_fast ship" speed="13.89" length="7.70" shape="885.29,2742.20 886.00,2744.45 886.81,2745.91 887.54,2747.38 888.01,2749.68"/>
        <lane id=":162369688_0_2" index="2" disallow="bicycle tram rail_urban rail rail_electric rail_fast ship" speed="13.89" length="7.70" shape="882.16,2742.83 882.84,2744.99 883.64,2746.38 884.37,2747.78 884.83,2749.97"/>
        <lane id=":162369688_0_3" index="3" disallow="bicycle tram rail_urban rail rail_electric rail_fast ship" speed="13.89" length="7.70" shape="879.02,2743.47 879.69,2745.53 880.48,2746.85 881.19,2748.18 881.64,2750.27"/>
        <lane id=":162369688_0_4" index="4" disallow="bicycle tram rail_urban rail rail_electric rail_fast ship" speed="13.89" length="7.70" shape="879.02,2743.47 879.18,2745.55 878.88,2747.00 878.50,2748.45 878.46,2750.57"/>
    </edge>
    <edge id=":162369693_0" function="internal">
        <lane id=":162369693_0_0" index="0" allow="bicycle" speed="13.89" length="0.52" width="1.00" shape="864.08,2771.56 864.09,2771.20"/>
        <lane id=":162369693_0_1" index="1" disallow="bicycle tram rail_urban rail rail_electric rail_fast ship" speed="13.89" length="0.52" shape="866.18,2771.65 866.19,2771.21"/>
        <lane id=":162369693_0_2" index="2" disallow="bicycle tram rail_urban rail rail_electric rail_fast ship" speed="13.89" length="0.52" shape="869.38,2771.79 869.39,2771.22"/>
        <lane id=":162369693_0_3" index="3" disallow="bicycle tram rail_urban rail rail_electric rail_fast ship" speed="13.89" length="0.52" shape="872.57,2771.92 872.59,2771.22"/>
    </edge>
    <edge id=":1675098304_0" function="internal">
        <lane id=":1675098304_0_0" index="0" allow="bicycle" speed="13.89" length="0.27" width="1.00" shape="442.92,2532.36 442.96,2532.38"/>
        <lane id=":1675098304_0_1" index="1" disallow="bicycle tram rail_urban rail rail_electric rail_fast ship" speed="13.89" length="0.27" shape="442.00,2534.25 442.07,2534.28 442.11,2534.30 442.15,2534.32 442.22,2534.35"/>
        <lane id=":1675098304_0_2" index="2" disallow="bicycle tram rail_urban rail rail_electric rail_fast ship" speed="13.89" length="0.27" shape="440.60,2537.13 440.75,2537.20 440.85,2537.25 440.95,2537.29 441.10,2537.34"/>
    </edge>
    <edge id=":1675101425_0" function="internal">
        <lane id=":1675101425_0_0" index="0" allow="bicycle" speed="13.89" length="0.69" width="1.00" shape="487.63,2571.65 487.32,2571.75 487.11,2571.81 486.90,2571.86 486.58,2571.91"/>
        <lane id=":1675101425_0_1" index="1" disallow="bicycle tram rail_urban rail rail_electric rail_fast ship" speed="13.89" length="0.69" shape="486.96,2569.66 486.75,2569.73 486.60,2569.77 486.45,2569.80 486.23,2569.84"/>
        <lane id=":1675101425_0_2" index="2" disallow="bicycle tram rail_urban rail rail_electric rail_fast ship" speed="13.89" length="0.69" shape="485.95,2566.62 485.88,2566.65 485.83,2566.66 485.78,2566.67 485.71,2566.68"/>
    </edge>
    <edge id=":1938410036_0" function="internal">
        <lane id=":1938410036_0_0" index="0" allow="bicycle" speed="13.89" length="0.30" width="1.00" shape="999.25,2358.96 999.53,2358.86"/>
        <lane id=":1938410036_0_1" index="1" disallow="bicycle tram rail_urban rail rail_electric rail_fast ship" speed="13.89" length="0.30" shape="999.96,2360.94 1000.24,2360.83"/>
        <lane id=":1938410036_0_2" index="2" disallow="bicycle tram rail_urban rail rail_electric rail_fast ship" speed="13.89" length="0.30" shape="1001.04,2363.95 1001.32,2363.84"/>
    </edge>
    <edge id=":1961834994_0" function="internal">
        <lane id=":1961834994_0_0" index="0" allow="bicycle" speed="13.89" length="0.49" width="1.00" shape="784.30,2526.77 784.53,2527.35"/>
        <lane id=":1961834994_0_1" index="1" disallow="bicycle tram rail_urban rail rail_electric rail_fast ship" speed="13.89" length="0.49" shape="782.35,2527.57 782.56,2528.08"/>
        <lane id=":1961834994_0_2" index="2" disallow="bicycle tram rail_urban rail rail_electric rail_fast ship" speed="13.89" length="0.49" shape="779.39,2528.78 779.56,2529.20"/>
        <lane id=":1961834994_0_3" index="3" disallow="bicycle tram rail_urban rail rail_electric rail_fast ship" speed="13.89" length="0.49" shape="776.43,2529.99 776.56,2530.31"/>
    </edge>
    <edge id=":2143425627_0" function="internal">
        <lane id=":2143425627_0_0" index="0" allow="bicycle" speed="13.89" length="0.30" width="1.00" shape="667.32,2511.86 667.04,2511.95"/>
        <lane id=":2143425627_0_1" index="1" disallow="bicycle tram rail_urban rail rail_electric rail_fast ship" speed="13.89" length="0.30" shape="666.66,2509.87 666.38,2509.96"/>
        <lane id=":2143425627_0_2" index="2" disallow="bicycle tram rail_urban rail rail_electric rail_fast ship" speed="13.89" length="0.30" shape="665.65,2506.83 665.36,2506.92"/>
    </edge>
    <edge id=":2143425633_0" function="internal">
        <lane id=":2143425633_0_0" index="0" allow="bicycle" speed="13.89" length="0.10" width="1.00" shape="550.44,2550.75 550.44,2550.75"/>
        <lane id=":2143425633_0_1" index="1" disallow="bicycle tram rail_urban rail rail_electric rail_fast ship" speed="13.89" length="0.10" shape="549.78,2548.75 549.78,2548.75"/>
        <lane id=":2143425633_0_2" index="2" disallow="bicycle tram rail_urban rail rail_electric rail_fast ship" speed="13.89" length="0.10" shape="548.77,2545.72 548.77,2545.72"/>
    </edge>
    <edge id=":21487271_0" function="internal">
        <lane id=":21487271_0_0" index="0" allow="bicycle" speed="8.16" length="10.20" width="1.00" shape="462.80,2580.13 461.91,2577.85 460.41,2576.02 458.29,2574.66 455.57,2573.75"/>
    </edge>
    <edge id=":21487271_1" function="internal">
        <lane id=":21487271_1_0" index="0" allow="bicycle" speed="13.89" length="16.28" width="1.00" shape="462.80,2580.13 458.84,2564.33"/>
    </edge>
    <edge id=":21487271_2" function="internal">
        <lane id=":21487271_2_0" index="0" disallow="bicycle tram rail_urban rail rail_electric rail_fast ship" speed="9.30" length="12.82" shape="464.85,2579.65 463.73,2576.79 461.84,2574.50 459.18,2572.78 455.76,2571.64"/>
    </edge>
    <edge id=":21487271_3" function="internal">
        <lane id=":21487271_3_0" index="0" disallow="bicycle tram rail_urban rail rail_electric rail_fast ship" speed="10.58" length="16.81" shape="467.96,2578.93 466.50,2575.17 464.02,2572.17 460.54,2569.92 456.04,2568.42"/>
    </edge>
    <edge id=":21487271_4" function="internal">
        <lane id=":21487271_4_0" index="0" disallow="bicycle tram rail_urban rail rail_electric rail_fast ship" speed="13.89" length="16.81" shape="467.96,2578.93 466.36,2574.27 464.51,2571.34 462.62,2568.42 460.87,2563.79"/>
    </edge>
    <edge id=":21487271_5" function="internal">
        <lane id=":21487271_5_0" index="0" disallow="bicycle tram rail_urban rail rail_electric rail_fast ship" speed="3.65" length="4.67" shape="467.96,2578.93 468.48,2577.58 469.18,2577.02 470.05,2577.24 471.09,2578.24"/>
    </edge>
    <edge id=":21487271_6" function="internal">
        <lane id=":21487271_6_0" index="0" allow="bicycle" speed="5.74" length="7.86" width="1.00" shape="478.46,2573.27 475.83,2573.95 474.06,2574.92 473.17,2576.19 473.13,2577.76"/>
    </edge>
    <edge id=":21487271_7" function="internal">
        <lane id=":21487271_7_0" index="0" allow="bicycle" speed="13.89" length="23.17" width="1.00" shape="478.46,2573.27 471.69,2574.51 466.97,2575.17 462.27,2575.00 455.57,2573.75"/>
    </edge>
    <edge id=":21487271_8" function="internal">
        <lane id=":21487271_8_0" index="0" allow="bicycle" speed="10.47" length="23.98" width="1.00" shape="478.46,2573.27 471.05,2573.77 465.31,2572.45 461.24,2569.30 458.84,2564.33"/>
    </edge>
    <edge id=":21487271_9" function="internal">
        <lane id=":21487271_9_0" index="0" disallow="bicycle tram rail_urban rail rail_electric rail_fast ship" speed="7.07" length="5.78" shape="478.11,2571.20 474.55,2572.18 472.78,2573.30"/>
    </edge>
    <edge id=":21487271_10" function="internal">
        <lane id=":21487271_10_0" index="0" disallow="bicycle tram rail_urban rail rail_electric rail_fast ship" speed="13.89" length="22.20" shape="478.11,2571.20 471.50,2572.41 466.89,2573.04 462.30,2572.87 455.76,2571.64"/>
        <lane id=":21487271_10_1" index="1" disallow="bicycle tram rail_urban rail rail_electric rail_fast ship" speed="13.89" length="22.20" shape="477.57,2568.05 471.20,2569.20 466.76,2569.80 462.34,2569.61 456.04,2568.42"/>
    </edge>
    <edge id=":21487271_12" function="internal">
        <lane id=":21487271_12_0" index="0" disallow="bicycle tram rail_urban rail rail_electric rail_fast ship" speed="8.76" length="16.03" shape="477.57,2568.05 472.32,2568.48 468.31,2567.78 465.52,2565.95 463.97,2562.97"/>
    </edge>
    <edge id=":21487271_18" function="internal">
        <lane id=":21487271_18_0" index="0" disallow="bicycle tram rail_urban rail rail_electric rail_fast ship" speed="7.07" length="5.57" shape="472.78,2573.30 472.19,2573.67 471.04,2575.69 471.09,2578.24"/>
    </edge>
    <edge id=":21487271_13" function="internal">
        <lane id=":21487271_13_0" index="0" allow="bicycle" speed="13.89" length="17.09" width="1.00" shape="472.18,2560.80 472.98,2565.75 472.75,2569.26 472.48,2572.77 473.13,2577.76"/>
    </edge>
    <edge id=":21487271_14" function="internal">
        <lane id=":21487271_14_0" index="0" allow="bicycle" speed="9.14" length="26.73" width="1.00" shape="472.18,2560.80 472.46,2567.95 469.28,2572.48 463.40,2574.40 455.57,2573.75"/>
    </edge>
    <edge id=":21487271_15" function="internal">
        <lane id=":21487271_15_0" index="0" disallow="bicycle tram rail_urban rail rail_electric rail_fast ship" speed="13.89" length="17.02" shape="470.15,2561.34 470.95,2566.27 470.71,2569.76 470.44,2573.27 471.09,2578.24"/>
    </edge>
    <edge id=":21487271_16" function="internal">
        <lane id=":21487271_16_0" index="0" disallow="bicycle tram rail_urban rail rail_electric rail_fast ship" speed="7.41" length="16.43" shape="467.06,2562.16 467.30,2566.03 465.54,2568.37 461.79,2569.16 456.04,2568.42"/>
    </edge>
    <edge id=":21487271_17" function="internal">
        <lane id=":21487271_17_0" index="0" disallow="bicycle tram rail_urban rail rail_electric rail_fast ship" speed="3.65" length="4.67" shape="467.06,2562.16 466.60,2563.52 465.92,2564.11 465.05,2563.93 463.97,2562.97"/>
    </edge>
    <edge id=":2496651820_0" function="internal">
        <lane id=":2496651820_0_0" index="0" allow="bicycle" speed="8.33" length="0.30" width="1.00" shape="699.92,2293.66 699.98,2293.86"/>
        <lane id=":2496651820_0_1" index="1" disallow="bicycle tram rail_urban rail rail_electric rail_fast ship" speed="8.33" length="0.30" shape="697.89,2294.20 697.96,2294.44"/>
        <lane id=":2496651820_0_2" index="2" disallow="bicycle tram rail_urban rail rail_electric rail_fast ship" speed="8.33" length="0.30" shape="694.80,2295.01 694.88,2295.32"/>
        <lane id=":2496651820_0_3" index="3" disallow="bicycle tram rail_urban rail rail_electric rail_fast ship" speed="8.33" length="0.30" shape="691.70,2295.83 691.81,2296.20"/>
    </edge>
    <edge id=":26952386_0" function="internal">
        <lane id=":26952386_0_0" index="0" allow="bicycle" speed="13.89" length="20.04" width="1.00" shape="456.27,2553.02 455.49,2547.16 455.70,2543.04 455.87,2538.94 455.01,2533.10"/>
    </edge>
    <edge id=":26952386_1" function="internal">
        <lane id=":26952386_1_0" index="0" allow="bicycle" speed="10.20" length="27.21" width="1.00" shape="456.27,2553.02 456.06,2546.38 458.73,2541.44 464.26,2538.21 472.67,2536.68"/>
    </edge>
    <edge id=":26952386_2" function="internal">
        <lane id=":26952386_2_0" index="0" disallow="bicycle tram rail_urban rail rail_electric rail_fast ship" speed="13.89" length="20.08" shape="458.32,2552.57 457.54,2546.70 457.74,2542.58 457.92,2538.46 457.05,2532.61"/>
    </edge>
    <edge id=":26952386_3" function="internal">
        <lane id=":26952386_3_0" index="0" disallow="bicycle tram rail_urban rail rail_electric rail_fast ship" speed="7.75" length="14.72" shape="461.44,2551.88 461.67,2549.28 463.61,2547.30 467.27,2545.94 472.65,2545.20"/>
    </edge>
    <edge id=":26952386_4" function="internal">
        <lane id=":26952386_4_0" index="0" disallow="bicycle tram rail_urban rail rail_electric rail_fast ship" speed="3.65" length="4.67" shape="461.44,2551.88 461.97,2550.54 462.66,2549.97 463.53,2550.19 464.57,2551.19"/>
    </edge>
    <edge id=":26952386_5" function="internal">
        <lane id=":26952386_5_0" index="0" allow="bicycle" speed="7.94" length="12.84" width="1.00" shape="462.21,2531.39 463.39,2533.94 465.52,2535.67 468.62,2536.59 472.67,2536.68"/>
    </edge>
    <edge id=":26952386_6" function="internal">
        <lane id=":26952386_6_0" index="0" allow="bicycle" speed="13.89" length="20.21" width="1.00" shape="462.21,2531.39 464.05,2537.03 466.03,2540.69 467.98,2544.36 469.75,2550.06"/>
    </edge>
    <edge id=":26952386_7" function="internal">
        <lane id=":26952386_7_0" index="0" disallow="bicycle tram rail_urban rail rail_electric rail_fast ship" speed="8.93" length="15.70" shape="460.17,2531.88 461.63,2535.18 464.20,2537.43 467.88,2538.63 472.68,2538.79"/>
    </edge>
    <edge id=":26952386_8" function="internal">
        <lane id=":26952386_8_0" index="0" disallow="bicycle tram rail_urban rail rail_electric rail_fast ship" speed="13.89" length="20.18" shape="460.17,2531.88 462.01,2537.51 463.99,2541.16 465.93,2544.82 467.70,2550.51"/>
    </edge>
    <edge id=":26952386_9" function="internal">
        <lane id=":26952386_9_0" index="0" disallow="bicycle tram rail_urban rail rail_electric rail_fast ship" speed="3.65" length="4.67" shape="460.17,2531.88 459.66,2533.23 458.98,2533.80 458.11,2533.60 457.05,2532.61"/>
    </edge>
    <edge id=":26952386_10" function="internal">
        <lane id=":26952386_10_0" index="0" allow="bicycle" speed="4.19" length="5.59" width="1.00" shape="452.18,2535.86 453.79,2536.23 454.80,2535.89 455.20,2534.85 455.01,2533.10"/>
    </edge>
    <edge id=":26952386_11" function="internal">
        <lane id=":26952386_11_0" index="0" allow="bicycle" speed="13.89" length="20.83" width="1.00" shape="452.18,2535.86 457.99,2537.62 462.19,2537.90 466.51,2537.36 472.67,2536.68"/>
    </edge>
    <edge id=":26952386_12" function="internal">
        <lane id=":26952386_12_0" index="0" allow="bicycle" speed="13.32" length="23.39" width="1.00" shape="452.18,2535.86 459.19,2538.98 464.45,2542.39 467.97,2546.08 469.75,2550.06"/>
    </edge>
    <edge id=":26952386_13" function="internal">
        <lane id=":26952386_13_0" index="0" disallow="bicycle tram rail_urban rail rail_electric rail_fast ship" speed="5.94" length="4.68" shape="451.65,2537.90 454.73,2538.60 456.17,2538.11"/>
    </edge>
    <edge id=":26952386_14" function="internal">
        <lane id=":26952386_14_0" index="0" disallow="bicycle tram rail_urban rail rail_electric rail_fast ship" speed="13.89" length="22.12" shape="451.65,2537.90 457.70,2540.24 461.97,2541.64 466.37,2542.19 472.79,2541.99"/>
        <lane id=":26952386_14_1" index="1" disallow="bicycle tram rail_urban rail rail_electric rail_fast ship" speed="13.89" length="22.12" shape="450.85,2540.99 457.23,2542.93 461.63,2544.43 466.08,2545.26 472.65,2545.20"/>
    </edge>
    <edge id=":26952386_16" function="internal">
        <lane id=":26952386_16_0" index="0" disallow="bicycle tram rail_urban rail rail_electric rail_fast ship" speed="11.04" length="17.93" shape="450.85,2540.99 456.27,2542.81 460.37,2545.12 463.13,2547.91 464.57,2551.19"/>
    </edge>
    <edge id=":26952386_17" function="internal">
        <lane id=":26952386_17_0" index="0" disallow="bicycle tram rail_urban rail rail_electric rail_fast ship" speed="5.94" length="6.01" shape="456.17,2538.11 456.65,2537.95 457.43,2535.96 457.05,2532.61"/>
    </edge>
    <edge id=":26952406_0" function="internal">
        <lane id=":26952406_0_0" index="0" allow="bicycle" speed="7.42" length="15.32" width="1.00" shape="363.43,2139.83 363.37,2135.46 364.79,2132.49 367.68,2130.92 372.05,2130.75"/>
    </edge>
    <edge id=":26952406_1" function="internal">
        <lane id=":26952406_1_0" index="0" disallow="bicycle tram rail_urban rail rail_electric rail_fast ship" speed="6.62" length="11.25" shape="365.51,2139.51 365.46,2136.30 366.50,2134.12 368.63,2132.97 371.83,2132.84"/>
    </edge>
    <edge id=":26952406_2" function="internal">
        <lane id=":26952406_2_0" index="0" allow="bicycle" speed="13.89" length="0.97" width="1.00" shape="371.29,2138.11 371.01,2138.12 370.83,2138.22 370.74,2138.41 370.74,2138.69"/>
    </edge>
    <edge id=":26952406_3" function="internal">
        <lane id=":26952406_3_0" index="0" disallow="bicycle tram rail_urban rail rail_electric rail_fast ship" speed="4.70" length="5.04" shape="371.50,2136.02 370.07,2136.08 369.11,2136.60 368.65,2137.57 368.67,2139.01"/>
    </edge>
    <edge id=":26952408_0" function="internal">
        <lane id=":26952408_0_0" index="0" allow="bicycle" speed="5.46" length="6.54" width="1.00" shape="406.06,2331.06 405.38,2329.29 404.37,2328.14 403.03,2327.60 401.36,2327.66"/>
    </edge>
    <edge id=":26952408_1" function="internal">
        <lane id=":26952408_1_0" index="0" allow="bicycle" speed="13.89" length="15.18" width="1.00" shape="406.06,2331.06 402.56,2316.29"/>
    </edge>
    <edge id=":26952408_2" function="internal">
        <lane id=":26952408_2_0" index="0" allow="bicycle" speed="8.20" length="3.41" width="1.00" shape="406.06,2331.06 406.18,2327.65"/>
    </edge>
    <edge id=":26952408_3" function="internal">
        <lane id=":26952408_3_0" index="0" disallow="bicycle tram rail_urban rail rail_electric rail_fast ship" speed="6.86" length="4.25" shape="408.10,2330.55 407.09,2327.96 406.10,2326.87"/>
    </edge>
    <edge id=":26952408_4" function="internal">
        <lane id=":26952408_4_0" index="0" disallow="bicycle tram rail_urban rail rail_electric rail_fast ship" speed="13.89" length="15.13" shape="408.10,2330.55 404.61,2315.83"/>
    </edge>
    <edge id=":26952408_5" function="internal">
        <lane id=":26952408_5_0" index="0" disallow="bicycle tram rail_urban rail rail_electric rail_fast ship" speed="7.56" length="4.47" shape="408.10,2330.55 408.21,2327.26 408.72,2326.20"/>
    </edge>
    <edge id=":26952408_6" function="internal">
        <lane id=":26952408_6_0" index="0" disallow="bicycle tram rail_urban rail rail_electric rail_fast ship" speed="3.65" length="2.34" shape="408.10,2330.55 408.59,2329.19 409.27,2328.61"/>
    </edge>
    <edge id=":26952408_28" function="internal">
        <lane id=":26952408_28_0" index="0" allow="bicycle" speed="8.20" length="13.88" width="1.00" shape="406.18,2327.65 406.20,2326.94 408.14,2322.85 411.31,2319.61 415.12,2318.05"/>
    </edge>
    <edge id=":26952408_29" function="internal">
        <lane id=":26952408_29_0" index="0" disallow="bicycle tram rail_urban rail rail_electric rail_fast ship" speed="6.86" length="5.57" shape="406.10,2326.87 405.56,2326.27 403.51,2325.49 400.94,2325.60"/>
    </edge>
    <edge id=":26952408_30" function="internal">
        <lane id=":26952408_30_0" index="0" disallow="bicycle tram rail_urban rail rail_electric rail_fast ship" speed="7.56" length="9.37" shape="408.72,2326.20 409.77,2323.98 412.30,2321.39 415.35,2320.14"/>
    </edge>
    <edge id=":26952408_31" function="internal">