<?xml version="1.0" encoding="UTF-8"?>

<routes xmlns:xsi="http://www.w3.org/2001/XMLSchema-instance" xsi:noNamespaceSchemaLocation="http://sumo.dlr.de/xsd/routes_file.xsd">
    
    <route edges="172425925 241020237#0 241020237#1 241020237#2 241020237#3 -195337820#3 -195337820#2 -195337820#1 -195337820#0 -66514458#5 -66514458#0 -32977011#4 -32977011#3 -32977011#2 -4686498#0 370648473#0 370648473#1 370648473#2 -370648471 -4612758#3 -4612758#2 -4612758#1 -4612758#0 170780644 183419650 262117177 -95926536#11" color="yellow" id="route_0"/>

    <flow id="flow_0" type="vehDist" begin="0.00" route="route_0" end="14400.00" number="300"/>

    <trip id="0" depart="0.00" from="-66514458#0" to="-4887461#7"/>
    <trip id="1" depart="6.00" from="172425901#5" to="-186220566"/>
    <trip id="2" depart="12.00" from="-183073681#2" to="-4686299#2"/>
    <trip id="3" depart="18.00" from="4612406#0" to="30185015#0"/>
    <trip id="4" depart="24.00" from="-4887461#4" to="32977013#6"/>
    <trip id="5" depart="30.00" from="-95926536#6" to="-4612753#6"/>
    <trip id="6" depart="36.00" from="856043395#1" to="-95926536#5"/>
    <trip id="7" depart="42.00" from="53357063#1" to="36738526#1"/>
    <trip id="8" depart="48.00" from="4612758#1" to="-195337820#2"/>
    <trip id="9" depart="54.00" from="-24579669#3" to="-507152760"/>
    <trip id="10" depart="60.00" from="37774392#2" to="159155852#0"/>
    <trip id="11" depart="66.00" from="95926536#3" to="37774392#6"/>
    <trip id="12" depart="72.00" from="31480086#0" to="4612756#0"/>
    <trip id="13" depart="78.00" from="53357056#3" to="4887458#1"/>
    <trip id="14" depart="84.00" from="-856043395#1" to="-65425837#5"/>
    <trip id="15" depart="90.00" from="4612696#2" to="172425895#1"/>
    <trip id="16" depart="96.00" from="-65425837#1" to="-53357063#2"/>
    <trip id="17" depart="102.00" from="31892900#0" to="-65425837#2"/>
    <trip id="18" depart="108.00" from="32977012" to="66514450#0"/>
    <trip id="19" depart="114.00" from="172425895#1" to="-4887461#4"/>
    <trip id="20" depart="120.00" from="-32977013#3" to="37774389#0"/>
    <trip id="21" depart="126.00" from="4887461#6" to="172425901#6"/>
    <trip id="23" depart="138.00" from="95926536#7" to="24699014#3"/>
    <trip id="24" depart="144.00" from="-163028328" to="4612858#1"/>
    <trip id="25" depart="150.00" from="-65425837#2" to="386668188#2"/>
    <trip id="26" depart="156.00" from="-32977013#4" to="172425919#0"/>
    <trip id="27" depart="162.00" from="186220566" to="856043394#0"/>
    <trip id="28" depart="168.00" from="195344067" to="-4612758#2"/>
    <trip id="29" depart="174.00" from="66514471#6" to="64261738"/>
    <trip id="30" depart="180.00" from="-677177604" to="37774392#5"/>
    <trip id="31" depart="186.00" from="4686299#2" to="26247764#1"/>
    <trip id="32" depart="192.00" from="4887458#0" to="24699014#4"/>
    <trip id="33" depart="198.00" from="-106471823" to="-95926536#0"/>
    <trip id="34" depart="204.00" from="-172425896#4" to="67524735#5"/>
    <trip id="35" depart="210.00" from="65425833#1" to="53357051#5"/>
    <trip id="36" depart="216.00" from="-31454816" to="195344062"/>
    <trip id="37" depart="222.00" from="-23859719#1" to="4686299#1"/>
    <trip id="38" depart="228.00" from="4686487#0" to="-4612696#2"/>
    <trip id="39" depart="234.00" from="172425901#6" to="-4887458#1"/>
    <trip id="40" depart="240.00" from="262117177" to="4612860#0"/>
    <trip id="41" depart="246.00" from="-4686299#1" to="-856043395#2"/>
    <trip id="42" depart="252.00" from="-95926536#5" to="32977013#5"/>
    <trip id="43" depart="258.00" from="-23859720#0" to="37774389#2"/>
    <trip id="44" depart="264.00" from="-4892696#1" to="66514458#5"/>
    <trip id="45" depart="270.00" from="-53357056#0" to="4612752#5"/>
    <trip id="46" depart="276.00" from="68084763#3" to="32976452#2"/>
    <trip id="47" depart="282.00" from="195337820#1" to="4887461#4"/>
    <trip id="48" depart="288.00" from="-32976452#3" to="172425903#3"/>
    <trip id="49" depart="294.00" from="95926536#10" to="-32976452#4"/>
    <trip id="50" depart="300.00" from="172425895#3" to="-95926536#7"/>
    <trip id="51" depart="306.00" from="62276399" to="-62276473"/>
    <trip id="52" depart="312.00" from="-53357063#1" to="67524735#2"/>
    <trip id="53" depart="318.00" from="183073681#0" to="62276399"/>
    <trip id="54" depart="324.00" from="95926536#9" to="53357056#0"/>
    <trip id="55" depart="330.00" from="53357063#2" to="-4612756#4"/>
    <trip id="56" depart="336.00" from="195337821#7" to="-4887458#2"/>
    <trip id="57" depart="342.00" from="16806095#5" to="95926536#11"/>
    <trip id="58" depart="348.00" from="-65425837#1" to="4887461#3"/>
    <trip id="59" depart="354.00" from="186220566" to="172425901#6"/>
    <trip id="60" depart="360.00" from="856043395#1" to="95926536#7"/>
    <trip id="61" depart="366.00" from="31454816" to="4612763"/>
    <trip id="62" depart="372.00" from="-4612753#4" to="-8008692"/>
    <trip id="63" depart="378.00" from="866658785#1" to="32977011#4"/>
    <trip id="64" depart="384.00" from="26247764#1" to="4686235#0"/>
    <trip id="65" depart="390.00" from="195344068" to="562077314#1"/>
    <trip id="66" depart="396.00" from="-4612753#6" to="856043395#2"/>
    <trip id="67" depart="402.00" from="32977014#0" to="4612753#2"/>
    <trip id="68" depart="408.00" from="-53357053#2" to="-386668188#2"/>
    <trip id="69" depart="414.00" from="65425837#3" to="-53357063#2"/>
    <trip id="70" depart="420.00" from="32977013#6" to="370648473#2"/>
    <trip id="71" depart="426.00" from="-4686486" to="4612761#5"/>
    <trip id="72" depart="432.00" from="4612752#5" to="-856043393#0"/>
    <trip id="73" depart="438.00" from="-856043395#2" to="4686298#0"/>
    <trip id="74" depart="444.00" from="-23859720#1" to="195337816"/>
    <trip id="75" depart="450.00" from="-23859720#1" to="-4887458#2"/>
    <trip id="76" depart="456.00" from="36738526#3" to="95926536#2"/>
    <trip id="77" depart="462.00" from="4612406#3" to="-140549156#1"/>
    <trip id="78" depart="468.00" from="4892701#7" to="-856043393#0"/>
    <trip id="79" depart="474.00" from="4612752#0" to="68084763#4"/>
    <trip id="80" depart="480.00" from="-4612696#3" to="-32977014#0"/>
    <trip id="81" depart="486.00" from="4612761#5" to="-4686487#0"/>
    <trip id="83" depart="498.00" from="-113308024" to="4686493#2"/>
    <trip id="84" depart="504.00" from="37774392#3" to="-65425837#1"/>
    <trip id="85" depart="510.00" from="4612868#0" to="31454816"/>
    <trip id="86" depart="516.00" from="-23859721#0" to="65425837#0"/>
    <trip id="87" depart="522.00" from="53357051#5" to="32977013#2"/>
    <trip id="89" depart="534.00" from="-4612753#4" to="677177604"/>
    <trip id="91" depart="546.00" from="-183073681#1" to="4612864"/>
    <trip id="92" depart="552.00" from="4887461#3" to="-32977013#3"/>
    <trip id="93" depart="558.00" from="63013586" to="62237408"/>
    <trip id="94" depart="564.00" from="-183073681#0" to="-4686298#1"/>
    <trip id="95" depart="570.00" from="-95926536#1" to="62276481#0"/>
    <trip id="96" depart="576.00" from="866658785#0" to="-66514471#5"/>
    <trip id="97" depart="582.00" from="95926536#1" to="262117177"/>
    <trip id="98" depart="588.00" from="8008692" to="-32977014#0"/>
    <trip id="99" depart="594.00" from="866658801#0" to="-4612758#2"/>
    <trip id="101" depart="606.00" from="-32977013#2" to="172425919#0"/>
    <trip id="102" depart="612.00" from="4612859#4" to="-856043395#3"/>
    <trip id="104" depart="624.00" from="169738739#3" to="32977011#2"/>
    <trip id="105" depart="630.00" from="262117177" to="4612858#0"/>
    <trip id="106" depart="636.00" from="140549156#2" to="-23859719#1"/>
    <trip id="107" depart="642.00" from="4612752#1" to="-95926536#2"/>
    <trip id="108" depart="648.00" from="4612763" to="-856043393#0"/>
    <trip id="109" depart="654.00" from="172425895#3" to="-8008692"/>
    <trip id="110" depart="660.00" from="-4612406#1" to="172425901#5"/>
    <trip id="111" depart="666.00" from="66514458#0" to="370648473#0"/>
    <trip id="112" depart="672.00" from="-8008692" to="30185015#2"/>
    <trip id="113" depart="678.00" from="-106471823" to="-67524735#2"/>
    <trip id="114" depart="684.00" from="4612406#3" to="195337819#1"/>
    <trip id="115" depart="690.00" from="181462420#1" to="-4887458#2"/>
    <trip id="118" depart="708.00" from="507152759#0" to="4686235#1"/>
    <trip id="119" depart="714.00" from="-4686299#0" to="-183073681#2"/>
    <trip id="120" depart="720.00" from="53357063#2" to="-23859721#0"/>
    <trip id="121" depart="726.00" from="172425900#0" to="37774389#1"/>
    <trip id="122" depart="732.00" from="4612696#2" to="-140549156#0"/>
    <trip id="123" depart="738.00" from="-32977012" to="172425901#8"/>
    <trip id="124" depart="744.00" from="-4612758#0" to="856043395#0"/>
    <trip id="125" depart="750.00" from="241020237#1" to="-195344062"/>
    <trip id="126" depart="756.00" from="4612752#3" to="95926536#2"/>
    <trip id="127" depart="762.00" from="65425837#4" to="370646853"/>
    <trip id="128" depart="768.00" from="53357051#2" to="30185015#2"/>
    <trip id="130" depart="780.00" from="195337820#2" to="-65425837#0"/>
    <trip id="131" depart="786.00" from="4686487#0" to="24579669#3"/>
    <trip id="132" depart="792.00" from="4612758#2" to="-195344069"/>
    <trip id="133" depart="798.00" from="32977011#4" to="4612756#6"/>
    <trip id="134" depart="804.00" from="562077314#3" to="4686487#1"/>
    <trip id="135" depart="810.00" from="169738739#0" to="-140549156#0"/>
    <trip id="136" depart="816.00" from="113308024" to="4686298#1"/>
    <trip id="137" depart="822.00" from="562077314#1" to="856043394#0"/>
    <trip id="138" depart="828.00" from="30184955#1" to="36738526#1"/>
    <trip id="140" depart="840.00" from="-95926536#3" to="4612753#5"/>
    <trip id="141" depart="846.00" from="172425896#0" to="-4612756#3"/>
    <trip id="142" depart="852.00" from="195337819#0" to="-4612406#3"/>
    <trip id="143" depart="858.00" from="370648473#1" to="-183073681#3"/>
    <trip id="144" depart="864.00" from="-183073681#2" to="4526406#0"/>
    <trip id="145" depart="870.00" from="-4612696#4" to="195337818"/>
    <trip id="146" depart="876.00" from="-4887458#0" to="-95926536#10"/>
    <trip id="147" depart="882.00" from="4686235#1" to="53357051#5"/>
    <trip id="148" depart="888.00" from="-63013586" to="-24579669#5"/>
    <trip id="149" depart="894.00" from="-172425896#4" to="26247764#1"/>
    <trip id="150" depart="900.00" from="4612406#2" to="4686298#1"/>
    <trip id="151" depart="906.00" from="856043393#1" to="-4686299#2"/>
    <trip id="152" depart="912.00" from="-172425896#4" to="-4612753#4"/>
    <trip id="153" depart="918.00" from="-4612406#1" to="4612752#5"/>
    <trip id="154" depart="924.00" from="4612756#7" to="4686493#0"/>
    <trip id="155" depart="930.00" from="4619374" to="-32977014#0"/>
    <trip id="156" depart="936.00" from="507152759#1" to="866402520"/>
    <trip id="157" depart="942.00" from="-32977013#2" to="-183073681#2"/>
    <trip id="158" depart="948.00" from="-856043394#1" to="4612753#4"/>
    <trip id="159" depart="954.00" from="4612756#2" to="37774389#0"/>
    <trip id="160" depart="960.00" from="4887458#2" to="106471824"/>
    <trip id="161" depart="966.00" from="23859718" to="-95926536#8"/>
    <trip id="162" depart="972.00" from="53357063#2" to="53357051#0"/>
    <trip id="163" depart="978.00" from="-32977012" to="856043395#2"/>
    <trip id="164" depart="984.00" from="37774392#2" to="53357051#3"/>
    <trip id="165" depart="990.00" from="4612758#3" to="172425919#1"/>
    <trip id="166" depart="996.00" from="4612862#0" to="866658778"/>
    <trip id="167" depart="1002.00" from="262117177" to="195337821#8"/>
    <trip id="169" depart="1014.00" from="53357051#2" to="-31480086#1"/>
    <trip id="170" depart="1020.00" from="65425835#1" to="-53357063#1"/>
    <trip id="171" depart="1026.00" from="195337817" to="36738526#5"/>
    <trip id="172" depart="1032.00" from="562077314#0" to="-4612862#0"/>
    <trip id="173" depart="1038.00" from="-4887458#1" to="4892697#1"/>
    <trip id="174" depart="1044.00" from="-95926536#6" to="65425835#1"/>
    <trip id="175" depart="1050.00" from="4612756#8" to="-66514471#3"/>
    <trip id="176" depart="1056.00" from="195344059#0" to="4686298#3"/>
    <trip id="177" depart="1062.00" from="4612756#2" to="4526406#1"/>
    <trip id="178" depart="1068.00" from="4612756#3" to="-856043394#1"/>
    <trip id="180" depart="1080.00" from="4612868#3" to="-95926536#2"/>
    <trip id="181" depart="1086.00" from="4612758#0" to="-66514458#0"/>
    <trip id="182" depart="1092.00" from="-4686298#0" to="-386668188#2"/>
    <trip id="183" depart="1098.00" from="-4612758#2" to="-172425896#1"/>
    <trip id="184" depart="1104.00" from="62276481#1" to="195344063#2"/>
    <trip id="185" depart="1110.00" from="64261738" to="32976452#4"/>
    <trip id="186" depart="1116.00" from="507152760" to="172425896#0"/>
    <trip id="187" depart="1122.00" from="-23859720#1" to="37774389#1"/>
    <trip id="188" depart="1128.00" from="-195344063#0" to="-4612753#2"/>
    <trip id="189" depart="1134.00" from="31892900#1" to="-856043393#2"/>
    <trip id="190" depart="1140.00" from="95926536#6" to="-370648471"/>
    <trip id="191" depart="1146.00" from="4686486" to="36738526#3"/>
    <trip id="192" depart="1152.00" from="95926536#4" to="-856043394#0"/>
    <trip id="193" depart="1158.00" from="4612868#0" to="851063006#2"/>
    <trip id="194" depart="1164.00" from="-4686496" to="-4887458#1"/>
    <trip id="195" depart="1170.00" from="-106471824" to="183497785#1"/>
    <trip id="196" depart="1176.00" from="32977013#6" to="-67524735#4"/>
    <trip id="197" depart="1182.00" from="4612758#0" to="186220568"/>
    <trip id="198" depart="1188.00" from="4887461#3" to="37294339#0"/>
    <trip id="199" depart="1194.00" from="4612696#5" to="68084763#1"/>
    <trip id="200" depart="1200.00" from="4526406#1" to="66514471#2"/>
    <trip id="201" depart="1206.00" from="-4612756#3" to="-856043395#0"/>
    <trip id="202" depart="1212.00" from="4686098#1" to="32976452#1"/>
    <trip id="203" depart="1218.00" from="-67524735#0" to="-4612406#2"/>
    <trip id="204" depart="1224.00" from="814265987#1" to="195344069"/>
    <trip id="205" depart="1230.00" from="-866658785#0" to="-63013586"/>
    <trip id="206" depart="1236.00" from="53357051#5" to="32977011#2"/>
    <trip id="207" depart="1242.00" from="856043393#2" to="95926536#9"/>
    <trip id="208" depart="1248.00" from="4612752#5" to="-66514458#0"/>
    <trip id="209" depart="1254.00" from="-195337819#0" to="4686298#2"/>
    <trip id="210" depart="1260.00" from="195337819#1" to="4612406#3"/>
    <trip id="211" depart="1266.00" from="66759362" to="-4612862#0"/>
    <trip id="212" depart="1272.00" from="32977012" to="37774392#3"/>
    <trip id="213" depart="1278.00" from="10367550" to="-95926536#3"/>
    <trip id="214" depart="1284.00" from="4612752#4" to="589522219"/>
    <trip id="215" depart="1290.00" from="95926536#3" to="4612696#3"/>
    <trip id="216" depart="1296.00" from="26247764#1" to="172425900#0"/>
    <trip id="217" depart="1302.00" from="-4612862#2" to="140549156#1"/>
    <trip id="218" depart="1308.00" from="4686299#0" to="-4686487#0"/>
    <trip id="219" depart="1314.00" from="30185015#0" to="67524735#5"/>
    <trip id="220" depart="1320.00" from="172425925" to="4612756#8"/>
    <trip id="221" depart="1326.00" from="36738526#2" to="-53357056#3"/>
    <trip id="223" depart="1338.00" from="95926536#5" to="66514471#5"/>
    <trip id="225" depart="1350.00" from="53357051#3" to="195344068"/>
    <trip id="226" depart="1356.00" from="-65425837#6" to="53357055"/>
    <trip id="227" depart="1362.00" from="95926536#0" to="-53357063#1"/>
    <trip id="228" depart="1368.00" from="30185015#1" to="169738739#3"/>
    <trip id="229" depart="1374.00" from="-66514458#5" to="4887461#7"/>
    <trip id="230" depart="1380.00" from="32977013#2" to="95926536#9"/>
    <trip id="231" depart="1386.00" from="195344059#0" to="-4612753#2"/>
    <trip id="232" depart="1392.00" from="262117177" to="10367550"/>
    <trip id="234" depart="1404.00" from="4686496" to="-195337820#1"/>
    <trip id="235" depart="1410.00" from="4612752#0" to="51774906"/>
    <trip id="236" depart="1416.00" from="95926536#0" to="195344064"/>
    <trip id="238" depart="1428.00" from="65425824" to="181462420#1"/>
    <trip id="240" depart="1440.00" from="4612858#1" to="172425896#5"/>
    <trip id="241" depart="1446.00" from="195337819#1" to="866658785#1"/>
    <trip id="242" depart="1452.00" from="-95926536#5" to="4612756#5"/>
    <trip id="243" depart="1458.00" from="4612406#0" to="562077314#1"/>
    <trip id="244" depart="1464.00" from="562077314#1" to="62237408"/>
    <trip id="245" depart="1470.00" from="169738739#0" to="-866658785#0"/>
    <trip id="246" depart="1476.00" from="-23859719#0" to="37774389#2"/>
    <trip id="247" depart="1482.00" from="67524735#2" to="95926536#8"/>
    <trip id="248" depart="1488.00" from="4619374" to="172425919#0"/>
    <trip id="249" depart="1494.00" from="-32976452#4" to="37774392#2"/>
    <trip id="250" depart="1500.00" from="64261738" to="183073681#1"/>
    <trip id="251" depart="1506.00" from="4612756#4" to="66514458#0"/>
    <trip id="252" depart="1512.00" from="-195337820#1" to="4892697#0"/>
    <trip id="253" depart="1518.00" from="-4612752#5" to="24699014#4"/>
    <trip id="254" depart="1524.00" from="31909839#0" to="4892696#0"/>
    <trip id="255" depart="1530.00" from="63013586" to="370648473#2"/>
    <trip id="256" depart="1536.00" from="-4612752#4" to="195337818"/>
    <trip id="257" depart="1542.00" from="-64261738" to="-65425833#0"/>
    <trip id="258" depart="1548.00" from="-140549156#2" to="4892700#1"/>
    <trip id="260" depart="1560.00" from="-4612753#6" to="183073681#0"/>
    <trip id="261" depart="1566.00" from="-95926536#9" to="32977013#5"/>
    <trip id="262" depart="1572.00" from="-4686299#0" to="169738739#3"/>
    <trip id="263" depart="1578.00" from="95926536#5" to="-677177604"/>
    <trip id="264" depart="1584.00" from="-66514458#0" to="31909839#1"/>
    <trip id="265" depart="1590.00" from="4612753#7" to="4619374"/>
    <trip id="266" depart="1596.00" from="-195337820#3" to="36738526#3"/>
    <trip id="267" depart="1602.00" from="-66514471#6" to="4892697#2"/>
    <trip id="268" depart="1608.00" from="36738526#1" to="139350149#0"/>
    <trip id="269" depart="1614.00" from="37774392#3" to="37294337#0"/>
    <trip id="270" depart="1620.00" from="4612696#4" to="53357056#1"/>
    <trip id="271" depart="1626.00" from="4526406#0" to="-856043395#0"/>
    <trip id="272" depart="1632.00" from="181462420#0" to="32977011#4"/>
    <trip id="273" depart="1638.00" from="4612860#0" to="-32976452#0"/>
    <trip id="274" depart="1644.00" from="262117177" to="866658801#0"/>
    <trip id="275" depart="1650.00" from="53357051#2" to="-65425833#1"/>
    <trip id="276" depart="1656.00" from="-95926536#5" to="-32977014#0"/>
    <trip id="278" depart="1668.00" from="-172425896#1" to="262117177"/>
    <trip id="279" depart="1674.00" from="4612752#5" to="32977013#3"/>
    <trip id="280" depart="1680.00" from="-183073681#1" to="65425837#0"/>
    <trip id="281" depart="1686.00" from="31892900#0" to="66514471#6"/>
    <trip id="282" depart="1692.00" from="-4887461#5" to="-195344068"/>
    <trip id="283" depart="1698.00" from="51661483" to="66514471#3"/>
    <trip id="284" depart="1704.00" from="-32976452#3" to="65425837#2"/>
    <trip id="285" depart="1710.00" from="4612752#4" to="4612868#3"/>
    <trip id="286" depart="1716.00" from="4612868#1" to="-4612753#5"/>
    <trip id="287" depart="1722.00" from="195344059#0" to="172425896#4"/>
    <trip id="288" depart="1728.00" from="856043393#2" to="-186220568"/>
    <trip id="289" depart="1734.00" from="16806095#0" to="183073681#1"/>
    <trip id="290" depart="1740.00" from="856043393#2" to="562077314#3"/>
    <trip id="291" depart="1746.00" from="-32976452#4" to="4612756#1"/>
    <trip id="292" depart="1752.00" from="30184955#0" to="902297513"/>
    <trip id="293" depart="1758.00" from="4612752#0" to="386668188#2"/>
    <trip id="294" depart="1764.00" from="4887461#3" to="-53357063#1"/>
    <trip id="295" depart="1770.00" from="-4686496" to="-4887461#3"/>
    <trip id="296" depart="1776.00" from="62276481#2" to="-95926536#11"/>
    <trip id="297" depart="1782.00" from="-4612753#0" to="66514450#2"/>
    <trip id="298" depart="1788.00" from="-53357063#2" to="-4612758#0"/>
    <trip id="299" depart="1794.00" from="4612696#5" to="-183073681#2"/>
    <trip id="300" depart="1800.00" from="-172425896#1" to="4887461#7"/>
    <trip id="301" depart="1806.00" from="-53357056#0" to="-95926536#0"/>
    <trip id="302" depart="1812.00" from="4612868#1" to="24699014#1"/>
    <trip id="303" depart="1818.00" from="4612868#3" to="195337821#3"/>
    <trip id="305" depart="1830.00" from="866658778" to="-195344067"/>
    <trip id="306" depart="1836.00" from="4612753#7" to="195344063#1"/>
    <trip id="307" depart="1842.00" from="66514471#4" to="-23859721#0"/>
    <trip id="308" depart="1848.00" from="-866658801#0" to="95926536#6"/>
    <trip id="309" depart="1854.00" from="4612758#0" to="562077314#1"/>
    <trip id="310" depart="1860.00" from="4612406#1" to="4686493#1"/>
    <trip id="311" depart="1866.00" from="183419650" to="-507152759#0"/>
    <trip id="312" depart="1872.00" from="-95926536#5" to="186220568"/>
    <trip id="313" depart="1878.00" from="172425901#2" to="-32976452#3"/>
    <trip id="314" depart="1884.00" from="172425901#8" to="4612752#3"/>
    <trip id="315" depart="1890.00" from="67524735#3" to="-23859718"/>
    <trip id="316" depart="1896.00" from="53357051#3" to="-32976452#1"/>
    <trip id="317" depart="1902.00" from="4892701#4" to="31586091"/>
    <trip id="319" depart="1914.00" from="36738524#0" to="139350149#0"/>
    <trip id="320" depart="1920.00" from="32976452#4" to="-4887458#2"/>
    <trip id="321" depart="1926.00" from="32976452#1" to="4892701#4"/>
    <trip id="323" depart="1938.00" from="677177604" to="53357051#4"/>
    <trip id="324" depart="1944.00" from="-65425837#3" to="-4612758#3"/>
    <trip id="325" depart="1950.00" from="4612758#0" to="-856043395#0"/>
    <trip id="326" depart="1956.00" from="-95926536#6" to="-140549156#0"/>
    <trip id="327" depart="1962.00" from="62276481#2" to="31909839#1"/>
    <trip id="328" depart="1968.00" from="172425895#2" to="-4612752#4"/>
    <trip id="330" depart="1980.00" from="4612868#3" to="-4887461#2"/>
    <trip id="331" depart="1986.00" from="172425901#4" to="-95926536#8"/>
    <trip id="332" depart="1992.00" from="-31454816" to="-195344063#0"/>
    <trip id="333" depart="1998.00" from="4612753#0" to="-66514458#5"/>
    <trip id="334" depart="2004.00" from="4612696#5" to="195344062"/>
    <trip id="335" depart="2010.00" from="181462420#1" to="-66514471#2"/>
    <trip id="336" depart="2016.00" from="4686298#0" to="-32977013#6"/>
    <trip id="337" depart="2022.00" from="4612753#3" to="195344062"/>
    <trip id="338" depart="2028.00" from="4612752#2" to="-195337820#2"/>
    <trip id="339" depart="2034.00" from="172274262" to="36738525"/>
    <trip id="340" depart="2040.00" from="-65425824" to="-95926536#10"/>
    <trip id="341" depart="2046.00" from="4612758#1" to="195344069"/>
    <trip id="342" depart="2052.00" from="53357051#4" to="4892701#3"/>
    <trip id="343" depart="2058.00" from="4612761#0" to="172425901#3"/>
    <trip id="344" depart="2064.00" from="-32977013#6" to="23859721#1"/>
    <trip id="345" depart="2070.00" from="66514471#2" to="113308024"/>
    <trip id="346" depart="2076.00" from="4612859#3" to="51661483"/>
    <trip id="347" depart="2082.00" from="4892701#6" to="-53357056#1"/>
    <trip id="348" depart="2088.00" from="4612696#2" to="-4612758#1"/>
    <trip id="349" depart="2094.00" from="183073681#3" to="67524735#3"/>
    <trip id="350" depart="2100.00" from="31892900#2" to="37774392#3"/>
    <trip id="351" depart="2106.00" from="-23859719#0" to="183073681#1"/>
    <trip id="352" depart="2112.00" from="-195344063#1" to="23859720#1"/>
    <trip id="353" depart="2118.00" from="-856043394#1" to="186220566"/>
    <trip id="354" depart="2124.00" from="-195344063#1" to="53357051#5"/>
    <trip id="355" depart="2130.00" from="-23859721#1" to="62276481#0"/>
    <trip id="356" depart="2136.00" from="562077314#3" to="370648473#0"/>
    <trip id="357" depart="2142.00" from="23859719#0" to="195337818"/>
    <trip id="358" depart="2148.00" from="4892701#3" to="4612406#3"/>
    <trip id="359" depart="2154.00" from="-4612753#2" to="-195344067"/>
    <trip id="360" depart="2160.00" from="-95926536#8" to="4612761#4"/>
    <trip id="361" depart="2166.00" from="195344069" to="-4612756#7"/>
    <trip id="362" depart="2172.00" from="-53357063#0" to="181462420#0"/>
    <trip id="363" depart="2178.00" from="172425925" to="24579669#4"/>
    <trip id="364" depart="2184.00" from="-4612753#7" to="16806095#1"/>
    <trip id="365" depart="2190.00" from="-95926536#5" to="36738524#1"/>
    <trip id="366" depart="2196.00" from="-95926536#2" to="32977013#2"/>
    <trip id="367" depart="2202.00" from="8008692" to="-856043395#1"/>
    <trip id="368" depart="2208.00" from="4612753#7" to="24699014#1"/>
    <trip id="369" depart="2214.00" from="4526406#0" to="172425901#7"/>
    <trip id="370" depart="2220.00" from="856043393#0" to="195344062"/>
    <trip id="371" depart="2226.00" from="-4892696#0" to="-4612752#1"/>
    <trip id="372" depart="2232.00" from="53357051#5" to="65425837#0"/>
    <trip id="374" depart="2244.00" from="4686487#0" to="-4612696#3"/>
    <trip id="375" depart="2250.00" from="16806095#4" to="-4612756#1"/>
    <trip id="376" depart="2256.00" from="53357051#3" to="4686493#2"/>
    <trip id="377" depart="2262.00" from="4892701#3" to="-4612756#3"/>
    <trip id="378" depart="2268.00" from="4612753#2" to="-53357056#2"/>
    <trip id="379" depart="2274.00" from="183073681#0" to="-67524735#0"/>
    <trip id="380" depart="2280.00" from="4686098#1" to="183419650"/>
    <trip id="382" depart="2292.00" from="4892701#3" to="195337820#1"/>
    <trip id="383" depart="2298.00" from="53357051#5" to="159155869"/>
    <trip id="384" depart="2304.00" from="856043393#0" to="95926536#10"/>
    <trip id="386" depart="2316.00" from="169738739#1" to="24699014#2"/>
    <trip id="387" depart="2322.00" from="64261738" to="31480086#1"/>
    <trip id="388" depart="2328.00" from="66514471#2" to="-4612753#1"/>
    <trip id="390" depart="2340.00" from="106471823" to="-183073681#3"/>
    <trip id="391" depart="2346.00" from="68084763#0" to="53357056#1"/>
    <trip id="392" depart="2352.00" from="4612406#0" to="4892696#0"/>
    <trip id="393" depart="2358.00" from="-4612696#5" to="-67524735#2"/>
    <trip id="394" depart="2364.00" from="183073681#3" to="-140549156#0"/>
    <trip id="395" depart="2370.00" from="53357051#5" to="30185015#2"/>
    <trip id="396" depart="2376.00" from="-32977013#4" to="-67524735#2"/>
    <trip id="397" depart="2382.00" from="-8008692" to="-195337820#3"/>
    <trip id="398" depart="2388.00" from="172425901#4" to="4892696#1"/>
    <trip id="399" depart="2394.00" from="66514458#5" to="36738524#0"/>
    <trip id="400" depart="2400.00" from="-53357056#2" to="-4612752#5"/>
    <trip id="401" depart="2406.00" from="4612752#1" to="-31480086#0"/>
    <trip id="402" depart="2412.00" from="887310123#1" to="-23859719#0"/>
    <trip id="403" depart="2418.00" from="24579669#4" to="23859720#1"/>
    <trip id="404" depart="2424.00" from="95926536#3" to="31480086#0"/>
    <trip id="405" depart="2430.00" from="169739103#0" to="195337820#2"/>
    <trip id="406" depart="2436.00" from="37774392#2" to="95926536#1"/>
    <trip id="407" depart="2442.00" from="-64261738" to="-172425896#2"/>
    <trip id="408" depart="2448.00" from="4887461#4" to="10367550"/>
    <trip id="409" depart="2454.00" from="4612862#0" to="37774389#0"/>
    <trip id="410" depart="2460.00" from="4686493#1" to="4612862#2"/>
    <trip id="411" depart="2466.00" from="-95926536#11" to="-195337820#1"/>
    <trip id="412" depart="2472.00" from="30184955#1" to="507152759#0"/>
    <trip id="413" depart="2478.00" from="195337817" to="4612756#6"/>
    <trip id="415" depart="2490.00" from="-195344067" to="4887458#1"/>
    <trip id="416" depart="2496.00" from="188865513" to="-67524735#5"/>
    <trip id="417" depart="2502.00" from="-195337820#0" to="-4686299#2"/>
    <trip id="418" depart="2508.00" from="-195337819#1" to="68084763#1"/>
    <trip id="419" depart="2514.00" from="23859721#1" to="95926536#3"/>
    <trip id="420" depart="2520.00" from="26247764#1" to="-65425824"/>
    <trip id="421" depart="2526.00" from="140549155#0" to="4887461#2"/>
    <trip id="422" depart="2532.00" from="62276481#0" to="-95926536#3"/>
    <trip id="423" depart="2538.00" from="65425837#2" to="4612868#3"/>
    <trip id="424" depart="2544.00" from="887310123#0" to="195344067"/>
    <trip id="425" depart="2550.00" from="241020237#2" to="4892698"/>
    <trip id="426" depart="2556.00" from="36738524#1" to="53357051#0"/>
    <trip id="427" depart="2562.00" from="-24579669#3" to="4612696#5"/>
    <trip id="428" depart="2568.00" from="-856043393#1" to="36738526#0"/>
    <trip id="429" depart="2574.00" from="172425901#8" to="4612756#3"/>
    <trip id="430" depart="2580.00" from="106471824" to="-195337820#0"/>
    <trip id="431" depart="2586.00" from="62276481#2" to="139350149#1"/>
    <trip id="432" depart="2592.00" from="95926536#8" to="-66514471#2"/>
    <trip id="433" depart="2598.00" from="95926536#0" to="851063006#2"/>
    <trip id="434" depart="2604.00" from="-23859721#0" to="37774392#5"/>
    <trip id="435" depart="2610.00" from="140549156#1" to="4892698"/>
    <trip id="436" depart="2616.00" from="4612753#4" to="856043393#2"/>
    <trip id="438" depart="2628.00" from="-195344069" to="4887458#2"/>