<configuration>
    <input>    
        <net-file value="oranienstr.net.xml"/>
        <route-files value="oranienstr_stripped.trips.xml"/>
        <additional-files value="../../../../parameterization_impl/vTypeDistributions_new_params_medium.add.xml"/>
    </input>
    <time>
        <begin value="0"/>
        <end value="10000"/>
    </time>
    <tls.actuated.show-detectors value="true"/>
</configuration>
