<?xml version="1.0" encoding="UTF-8"?>

<!-- generated on Mo 15 Mär 2021 14:18:22 CET by Eclipse SUMO netedit Version v1_7_0+1228-0b1a97d77e
<configuration xmlns:xsi="http://www.w3.org/2001/XMLSchema-instance" xsi:noNamespaceSchemaLocation="http://sumo.dlr.de/xsd/netconvertConfiguration.xsd">

    <input>
        <sumo-net-file value="oranienstr_default/oranienstr.net.xml"/>
    </input>

    <output>
        <output-file value="oranienstr_default/oranienstr.net.xml"/>
    </output>

    <processing>
        <geometry.min-radius.fix.railways value="false"/>
        <geometry.max-grade.fix value="false"/>
        <offset.disable-normalization value="true"/>
        <lefthand value="false"/>
    </processing>

    <junctions>
        <no-turnarounds value="true"/>
        <junctions.corner-detail value="5"/>
        <junctions.limit-turn-speed value="5.5"/>
        <rectangular-lane-cut value="false"/>
    </junctions>

    <pedestrian>
        <walkingareas value="false"/>
    </pedestrian>

    <report>
        <aggregate-warnings value="5"/>
    </report>

</configuration>
-->

<net version="1.6" junctionCornerDetail="5" limitTurnSpeed="5.50" xmlns:xsi="http://www.w3.org/2001/XMLSchema-instance" xsi:noNamespaceSchemaLocation="http://sumo.dlr.de/xsd/net_file.xsd">

    <location netOffset="-391518.71,-5817143.37" convBoundary="0.00,281.42,1933.36,1419.27" origBoundary="13.401662,52.493890,13.430395,52.506600" projParameter="+proj=utm +zone=33 +ellps=WGS84 +datum=WGS84 +units=m +no_defs"/>

    <type id="highway.bridleway" priority="1" numLanes="1" speed="2.78" allow="pedestrian" oneway="1" width="2.00"/>
    <type id="highway.bus_guideway" priority="1" numLanes="1" speed="27.78" allow="bus" oneway="1"/>
    <type id="highway.cycleway" priority="1" numLanes="1" speed="8.33" allow="bicycle" oneway="0" width="1.00"/>
    <type id="highway.footway" priority="1" numLanes="1" speed="2.78" allow="pedestrian" oneway="1" width="2.00"/>
    <type id="highway.ford" priority="1" numLanes="1" speed="2.78" allow="army" oneway="0"/>
    <type id="highway.living_street" priority="2" numLanes="1" speed="2.78" disallow="tram rail_urban rail rail_electric rail_fast ship" oneway="0"/>
    <type id="highway.motorway" priority="14" numLanes="2" speed="39.44" allow="private emergency authority army vip passenger hov taxi bus coach delivery truck trailer motorcycle evehicle custom1 custom2" oneway="1"/>
    <type id="highway.motorway_link" priority="9" numLanes="1" speed="22.22" allow="private emergency authority army vip passenger hov taxi bus coach delivery truck trailer motorcycle evehicle custom1 custom2" oneway="1"/>
    <type id="highway.path" priority="1" numLanes="1" speed="2.78" allow="pedestrian bicycle" oneway="0" width="2.00"/>
    <type id="highway.pedestrian" priority="1" numLanes="1" speed="2.78" allow="pedestrian" oneway="1" width="2.00"/>
    <type id="highway.primary" priority="12" numLanes="2" speed="27.78" disallow="tram rail_urban rail rail_electric rail_fast ship" oneway="0"/>
    <type id="highway.primary_link" priority="7" numLanes="1" speed="22.22" disallow="tram rail_urban rail rail_electric rail_fast ship" oneway="0"/>
    <type id="highway.raceway" priority="15" numLanes="2" speed="83.33" allow="vip" oneway="0"/>
    <type id="highway.residential" priority="3" numLanes="1" speed="13.89" disallow="tram rail_urban rail rail_electric rail_fast ship" oneway="0"/>
    <type id="highway.secondary" priority="11" numLanes="1" speed="27.78" disallow="tram rail_urban rail rail_electric rail_fast ship" oneway="0"/>
    <type id="highway.secondary_link" priority="6" numLanes="1" speed="22.22" disallow="tram rail_urban rail rail_electric rail_fast ship" oneway="0"/>
    <type id="highway.service" priority="1" numLanes="1" speed="5.56" allow="pedestrian delivery bicycle" oneway="0"/>
    <type id="highway.stairs" priority="1" numLanes="1" speed="1.39" allow="pedestrian" oneway="1" width="2.00"/>
    <type id="highway.step" priority="1" numLanes="1" speed="1.39" allow="pedestrian" oneway="1" width="2.00"/>
    <type id="highway.steps" priority="1" numLanes="1" speed="1.39" allow="pedestrian" oneway="1" width="2.00"/>
    <type id="highway.tertiary" priority="10" numLanes="1" speed="22.22" disallow="tram rail_urban rail rail_electric rail_fast ship" oneway="0"/>
    <type id="highway.tertiary_link" priority="5" numLanes="1" speed="22.22" disallow="tram rail_urban rail rail_electric rail_fast ship" oneway="0"/>
    <type id="highway.track" priority="1" numLanes="1" speed="5.56" allow="pedestrian motorcycle moped bicycle" oneway="0"/>
    <type id="highway.trunk" priority="13" numLanes="2" speed="27.78" disallow="pedestrian bicycle tram rail_urban rail rail_electric rail_fast ship" oneway="0"/>
    <type id="highway.trunk_link" priority="8" numLanes="1" speed="22.22" disallow="pedestrian bicycle tram rail_urban rail rail_electric rail_fast ship" oneway="0"/>
    <type id="highway.unclassified" priority="4" numLanes="1" speed="13.89" disallow="tram rail_urban rail rail_electric rail_fast ship" oneway="0"/>
    <type id="highway.unsurfaced" priority="1" numLanes="1" speed="8.33" disallow="tram rail_urban rail rail_electric rail_fast ship" oneway="0"/>
    <type id="railway.highspeed" priority="21" numLanes="1" speed="69.44" allow="rail_fast" oneway="1"/>
    <type id="railway.light_rail" priority="19" numLanes="1" speed="27.78" allow="rail_urban" oneway="1"/>
    <type id="railway.preserved" priority="16" numLanes="1" speed="27.78" allow="rail" oneway="1"/>
    <type id="railway.rail" priority="20" numLanes="1" speed="44.44" allow="rail" oneway="1"/>
    <type id="railway.subway" priority="18" numLanes="1" speed="27.78" allow="rail_urban" oneway="1"/>
    <type id="railway.tram" priority="17" numLanes="1" speed="13.89" allow="tram" oneway="1"/>

    <edge id=":1136574933_0" function="internal">
        <lane id=":1136574933_0_0" index="0" allow="bicycle" speed="8.33" length="4.96" width="1.00" shape="803.30,1066.99 800.95,1062.59"/>
        <lane id=":1136574933_0_1" index="1" disallow="bicycle tram rail_urban rail rail_electric rail_fast ship" speed="8.33" length="4.96" shape="805.14,1065.97 802.81,1061.62"/>
    </edge>
    <edge id=":1136574933_2" function="internal">
        <lane id=":1136574933_2_0" index="0" disallow="bicycle tram rail_urban rail rail_electric rail_fast ship" speed="3.65" length="2.34" shape="805.14,1065.97 805.26,1064.53 805.77,1063.80"/>
    </edge>
    <edge id=":1136574933_6" function="internal">
        <lane id=":1136574933_6_0" index="0" disallow="bicycle tram rail_urban rail rail_electric rail_fast ship" speed="3.65" length="2.34" shape="805.77,1063.80 806.66,1063.76 807.94,1064.42"/>
    </edge>
    <edge id=":1136574933_3" function="internal">
        <lane id=":1136574933_3_0" index="0" allow="bicycle" speed="8.33" length="4.83" width="1.00" shape="807.51,1059.17 809.78,1063.41"/>
        <lane id=":1136574933_3_1" index="1" disallow="bicycle tram rail_urban rail rail_electric rail_fast ship" speed="8.33" length="4.83" shape="805.65,1060.14 807.94,1064.42"/>
    </edge>
    <edge id=":1136574933_5" function="internal">
        <lane id=":1136574933_5_0" index="0" disallow="bicycle tram rail_urban rail rail_electric rail_fast ship" speed="3.65" length="2.34" shape="805.65,1060.14 805.49,1061.58 804.97,1062.30"/>
    </edge>
    <edge id=":1136574933_7" function="internal">
        <lane id=":1136574933_7_0" index="0" disallow="bicycle tram rail_urban rail rail_electric rail_fast ship" speed="3.65" length="2.34" shape="804.97,1062.30 804.07,1062.32 802.81,1061.62"/>
    </edge>
    <edge id=":1136574961_0" function="internal">
        <lane id=":1136574961_0_0" index="0" allow="bicycle" speed="8.33" length="4.98" width="1.00" shape="829.38,1114.10 826.93,1109.74"/>
        <lane id=":1136574961_0_1" index="1" disallow="bicycle tram rail_urban rail rail_electric rail_fast ship" speed="8.33" length="4.98" shape="831.20,1113.06 828.77,1108.72"/>
    </edge>
    <edge id=":1136574961_2" function="internal">
        <lane id=":1136574961_2_0" index="0" disallow="bicycle tram rail_urban rail rail_electric rail_fast ship" speed="3.65" length="2.34" shape="831.20,1113.06 831.30,1111.62 831.80,1110.88"/>
    </edge>
    <edge id=":1136574961_6" function="internal">
        <lane id=":1136574961_6_0" index="0" disallow="bicycle tram rail_urban rail rail_electric rail_fast ship" speed="3.65" length="2.34" shape="831.80,1110.88 832.69,1110.83 833.98,1111.47"/>
    </edge>
    <edge id=":1136574961_3" function="internal">
        <lane id=":1136574961_3_0" index="0" allow="bicycle" speed="8.33" length="4.91" width="1.00" shape="833.41,1106.16 835.81,1110.44"/>
        <lane id=":1136574961_3_1" index="1" disallow="bicycle tram rail_urban rail rail_electric rail_fast ship" speed="8.33" length="4.91" shape="831.57,1107.18 833.98,1111.47"/>
    </edge>
    <edge id=":1136574961_5" function="internal">
        <lane id=":1136574961_5_0" index="0" disallow="bicycle tram rail_urban rail rail_electric rail_fast ship" speed="3.65" length="2.34" shape="831.57,1107.18 831.45,1108.61 830.94,1109.35"/>
    </edge>
    <edge id=":1136574961_7" function="internal">
        <lane id=":1136574961_7_0" index="0" disallow="bicycle tram rail_urban rail rail_electric rail_fast ship" speed="3.65" length="2.34" shape="830.94,1109.35 830.05,1109.39 828.77,1108.72"/>
    </edge>
    <edge id=":1141974520_0" function="internal">
        <lane id=":1141974520_0_0" index="0" allow="bicycle" speed="8.33" length="4.98" width="1.00" shape="1811.76,869.47 1809.34,865.12"/>
        <lane id=":1141974520_0_1" index="1" disallow="bicycle tram rail_urban rail rail_electric rail_fast ship" speed="8.33" length="4.98" shape="1813.60,868.45 1811.17,864.10"/>
    </edge>
    <edge id=":1141974520_2" function="internal">
        <lane id=":1141974520_2_0" index="0" disallow="bicycle tram rail_urban rail rail_electric rail_fast ship" speed="3.65" length="4.67" shape="1813.60,868.45 1813.72,867.01 1814.22,866.28 1815.12,866.24 1816.40,866.90"/>
    </edge>
    <edge id=":1141974520_3" function="internal">
        <lane id=":1141974520_3_0" index="0" allow="bicycle" speed="8.33" length="5.00" width="1.00" shape="1815.80,861.51 1818.23,865.88"/>
        <lane id=":1141974520_3_1" index="1" disallow="bicycle tram rail_urban rail rail_electric rail_fast ship" speed="8.33" length="5.00" shape="1813.97,862.54 1816.40,866.90"/>
    </edge>
    <edge id=":1141974520_5" function="internal">
        <lane id=":1141974520_5_0" index="0" disallow="bicycle tram rail_urban rail rail_electric rail_fast ship" speed="3.65" length="4.67" shape="1813.97,862.54 1813.85,863.97 1813.35,864.71 1812.46,864.76 1811.17,864.10"/>
    </edge>
    <edge id=":1144422900_0" function="internal">
        <lane id=":1144422900_0_0" index="0" allow="pedestrian bicycle" speed="2.78" length="5.00" width="2.00" shape="1350.50,1120.40 1345.92,1122.42"/>
    </edge>
    <edge id=":1144422900_1" function="internal">
        <lane id=":1144422900_1_0" index="0" allow="pedestrian bicycle" speed="2.78" length="2.92" width="2.00" shape="1350.50,1120.40 1349.61,1120.24 1349.18,1119.88 1349.21,1119.33 1349.69,1118.57"/>
    </edge>
    <edge id=":1144422900_2" function="internal">
        <lane id=":1144422900_2_0" index="0" allow="pedestrian bicycle" speed="2.78" length="5.00" width="2.00" shape="1345.12,1120.59 1349.69,1118.57"/>
    </edge>
    <edge id=":1144422900_3" function="internal">
        <lane id=":1144422900_3_0" index="0" allow="pedestrian bicycle" speed="2.78" length="2.92" width="2.00" shape="1345.12,1120.59 1346.00,1120.74 1346.44,1121.10 1346.41,1121.66 1345.92,1122.42"/>
    </edge>
    <edge id=":1144517026_0" function="internal">
        <lane id=":1144517026_0_0" index="0" allow="bicycle" speed="3.90" length="3.24" width="1.00" shape="1100.73,983.96 1100.25,983.22 1099.64,982.81 1098.91,982.72 1098.05,982.97"/>
    </edge>
    <edge id=":1144517026_1" function="internal">
        <lane id=":1144517026_1_0" index="0" allow="bicycle" speed="8.33" length="1.77" width="1.00" shape="1100.73,983.96 1099.98,982.35"/>
        <lane id=":1144517026_1_1" index="1" disallow="bicycle tram rail_urban rail rail_electric rail_fast ship" speed="8.33" length="1.77" shape="1102.63,983.07 1101.88,981.47"/>
    </edge>
    <edge id=":1144517026_3" function="internal">
        <lane id=":1144517026_3_0" index="0" disallow="bicycle tram rail_urban rail rail_electric rail_fast ship" speed="3.65" length="2.34" shape="1102.63,983.07 1102.85,981.64 1103.40,980.94"/>
    </edge>
    <edge id=":1144517026_11" function="internal">
        <lane id=":1144517026_11_0" index="0" disallow="bicycle tram rail_urban rail rail_electric rail_fast ship" speed="3.65" length="2.34" shape="1103.40,980.94 1104.30,980.97 1105.53,981.72"/>
    </edge>
    <edge id=":1144517026_4" function="internal">
        <lane id=":1144517026_4_0" index="0" allow="bicycle" speed="8.33" length="1.73" width="1.00" shape="1106.70,979.26 1107.43,980.83"/>
    </edge>
    <edge id=":1144517026_5" function="internal">
        <lane id=":1144517026_5_0" index="0" allow="bicycle" speed="6.39" length="3.75" width="1.00" shape="1106.70,979.26 1105.65,980.17 1103.46,981.06"/>
    </edge>
    <edge id=":1144517026_6" function="internal">
        <lane id=":1144517026_6_0" index="0" disallow="bicycle tram rail_urban rail rail_electric rail_fast ship" speed="8.33" length="1.74" shape="1104.79,980.14 1105.53,981.72"/>
    </edge>
    <edge id=":1144517026_7" function="internal">
        <lane id=":1144517026_7_0" index="0" disallow="bicycle tram rail_urban rail rail_electric rail_fast ship" speed="3.65" length="2.34" shape="1104.79,980.14 1104.57,981.56 1104.01,982.26"/>
    </edge>
    <edge id=":1144517026_12" function="internal">
        <lane id=":1144517026_12_0" index="0" allow="bicycle" speed="6.39" length="5.73" width="1.00" shape="1103.46,981.06 1102.87,981.30 1099.85,982.34 1098.05,982.97"/>
    </edge>
    <edge id=":1144517026_13" function="internal">
        <lane id=":1144517026_13_0" index="0" disallow="bicycle tram rail_urban rail rail_electric rail_fast ship" speed="3.65" length="2.34" shape="1104.01,982.26 1103.11,982.23 1101.88,981.47"/>
    </edge>
    <edge id=":1144517026_8" function="internal">
        <lane id=":1144517026_8_0" index="0" allow="bicycle" speed="3.34" length="2.36" width="1.00" shape="1097.64,982.06 1099.98,982.35"/>
    </edge>
    <edge id=":1144517026_9" function="internal">
        <lane id=":1144517026_9_0" index="0" allow="bicycle" speed="6.79" length="10.49" width="1.00" shape="1097.64,982.06 1101.47,980.55 1104.38,979.85 1106.37,979.94 1107.43,980.83"/>
    </edge>
    <edge id=":1144517026_10" function="internal">
        <lane id=":1144517026_10_0" index="0" allow="bicycle" speed="2.04" length="1.46" width="1.00" shape="1097.64,982.06 1098.08,982.13 1098.30,982.30 1098.29,982.58 1098.05,982.97"/>
    </edge>
    <edge id=":1200383419_0" function="internal">
        <lane id=":1200383419_0_0" index="0" allow="bicycle" speed="8.33" length="0.30" width="1.00" shape="906.35,1001.82 906.22,1001.53"/>
        <lane id=":1200383419_0_1" index="1" disallow="bicycle tram rail_urban rail rail_electric rail_fast ship" speed="8.33" length="0.30" shape="908.23,1000.87 908.11,1000.62"/>
    </edge>
    <edge id=":1224814544_0" function="internal">
        <lane id=":1224814544_0_0" index="0" allow="bicycle" speed="8.33" length="0.33" width="1.00" shape="1057.05,1152.09 1056.73,1152.24"/>
        <lane id=":1224814544_0_1" index="1" disallow="bicycle tram rail_urban rail rail_electric rail_fast ship" speed="8.33" length="0.33" shape="1056.14,1150.19 1055.86,1150.33"/>
    </edge>
    <edge id=":1224814544_2" function="internal">
        <lane id=":1224814544_2_0" index="0" allow="bicycle" speed="8.33" length="0.23" width="1.00" shape="1053.68,1145.50 1053.87,1145.41"/>
        <lane id=":1224814544_2_1" index="1" disallow="bicycle tram rail_urban rail rail_electric rail_fast ship" speed="8.33" length="0.23" shape="1054.54,1147.41 1054.77,1147.31"/>
    </edge>
    <edge id=":1224814545_0" function="internal">
        <lane id=":1224814545_0_0" index="0" allow="bicycle" speed="8.33" length="0.24" width="1.00" shape="1039.12,1160.21 1038.91,1160.31"/>
        <lane id=":1224814545_0_1" index="1" disallow="bicycle tram rail_urban rail rail_electric rail_fast ship" speed="8.33" length="0.24" shape="1038.25,1158.30 1038.01,1158.41"/>
    </edge>
    <edge id=":1224814545_2" function="internal">
        <lane id=":1224814545_2_0" index="0" allow="bicycle" speed="8.33" length="0.33" width="1.00" shape="1035.75,1153.62 1036.06,1153.47"/>
        <lane id=":1224814545_2_1" index="1" disallow="bicycle tram rail_urban rail rail_electric rail_fast ship" speed="8.33" length="0.33" shape="1036.65,1155.51 1036.93,1155.38"/>
    </edge>
    <edge id=":1285251472_0" function="internal">
        <lane id=":1285251472_0_0" index="0" disallow="tram rail_urban rail rail_electric rail_fast ship" speed="8.33" length="14.51" shape="731.32,1043.48 718.20,1049.69"/>
    </edge>
    <edge id=":1285251472_1" function="internal">
        <lane id=":1285251472_1_0" index="0" allow="bicycle" speed="8.26" length="5.08" width="1.00" shape="730.84,1042.50 726.42,1044.17 726.07,1044.20"/>
    </edge>
    <edge id=":1285251472_2" function="internal">
        <lane id=":1285251472_2_0" index="0" disallow="bicycle tram rail_urban rail rail_electric rail_fast ship" speed="8.01" length="6.20" shape="731.32,1043.48 727.72,1044.67 725.31,1044.56"/>
    </edge>
    <edge id=":1285251472_3" function="internal">
        <lane id=":1285251472_3_0" index="0" disallow="tram rail_urban rail rail_electric rail_fast ship" speed="3.65" length="2.34" shape="731.32,1043.48 729.89,1043.29 729.18,1042.74"/>
    </edge>
    <edge id=":1285251472_12" function="internal">
        <lane id=":1285251472_12_0" index="0" allow="bicycle" speed="8.26" length="9.40" width="1.00" shape="726.07,1044.20 722.79,1044.51 719.94,1043.53 717.88,1041.22"/>
    </edge>
    <edge id=":1285251472_13" function="internal">
        <lane id=":1285251472_13_0" index="0" disallow="bicycle tram rail_urban rail rail_electric rail_fast ship" speed="8.01" length="7.38" shape="725.31,1044.56 724.58,1044.52 721.91,1043.03 719.71,1040.19"/>
    </edge>
    <edge id=":1285251472_14" function="internal">
        <lane id=":1285251472_14_0" index="0" disallow="tram rail_urban rail rail_electric rail_fast ship" speed="3.65" length="2.34" shape="729.18,1042.74 729.19,1041.85 729.92,1040.61"/>
    </edge>
    <edge id=":1285251472_4" function="internal">
        <lane id=":1285251472_4_0" index="0" allow="bicycle" speed="5.35" length="6.18" shape="724.33,1037.59 725.40,1039.05 726.60,1039.87 727.95,1040.06 729.44,1039.62"/>
    </edge>
    <edge id=":1285251472_5" function="internal">
        <lane id=":1285251472_5_0" index="0" disallow="bicycle tram rail_urban rail rail_electric rail_fast ship" speed="6.52" length="8.65" shape="722.50,1038.62 723.89,1040.39 725.59,1041.31 727.60,1041.38 729.92,1040.61"/>
    </edge>
    <edge id=":1285251472_6" function="internal">
        <lane id=":1285251472_6_0" index="0" disallow="bicycle tram rail_urban rail rail_electric rail_fast ship" speed="7.68" length="13.79" shape="722.50,1038.62 723.75,1042.02 723.45,1045.00 721.60,1047.56 718.20,1049.69"/>
    </edge>
    <edge id=":1285251472_7" function="internal">
        <lane id=":1285251472_7_0" index="0" disallow="bicycle tram rail_urban rail rail_electric rail_fast ship" speed="3.65" length="4.67" shape="722.50,1038.62 722.39,1040.06 721.89,1040.80 720.99,1040.84 719.71,1040.19"/>
    </edge>
    <edge id=":1285251472_8" function="internal">
        <lane id=":1285251472_8_0" index="0" allow="bicycle" speed="5.15" length="5.58" width="1.00" shape="716.40,1045.79 717.70,1044.95 718.38,1043.91 718.44,1042.66 717.88,1041.22"/>
    </edge>
    <edge id=":1285251472_9" function="internal">
        <lane id=":1285251472_9_0" index="0" disallow="bicycle tram rail_urban rail rail_electric rail_fast ship" speed="6.12" length="8.33" shape="716.86,1046.79 718.99,1045.48 720.18,1043.94 720.42,1042.18 719.71,1040.19"/>
    </edge>
    <edge id=":1285251472_10" function="internal">
        <lane id=":1285251472_10_0" index="0" disallow="tram rail_urban rail rail_electric rail_fast ship" speed="8.33" length="14.45" shape="716.86,1046.79 729.92,1040.61"/>
    </edge>
    <edge id=":1285251472_11" function="internal">
        <lane id=":1285251472_11_0" index="0" disallow="tram rail_urban rail rail_electric rail_fast ship" speed="3.65" length="2.34" shape="716.86,1046.79 718.29,1047.01 718.98,1047.57"/>
    </edge>
    <edge id=":1285251472_15" function="internal">
        <lane id=":1285251472_15_0" index="0" disallow="tram rail_urban rail rail_electric rail_fast ship" speed="3.65" length="2.34" shape="718.98,1047.57 718.96,1048.47 718.20,1049.69"/>
    </edge>
    <edge id=":1285251475_0" function="internal">
        <lane id=":1285251475_0_0" index="0" disallow="tram rail_urban rail rail_electric rail_fast ship" speed="8.33" length="5.12" shape="683.28,1066.14 678.66,1068.33"/>
    </edge>
    <edge id=":1285251475_1" function="internal">
        <lane id=":1285251475_1_0" index="0" disallow="tram rail_urban rail rail_electric rail_fast ship" speed="3.65" length="2.34" shape="683.28,1066.14 681.85,1065.95 681.14,1065.40"/>
    </edge>
    <edge id=":1285251475_4" function="internal">
        <lane id=":1285251475_4_0" index="0" disallow="tram rail_urban rail rail_electric rail_fast ship" speed="3.65" length="2.34" shape="681.14,1065.40 681.15,1064.51 681.88,1063.26"/>
    </edge>
    <edge id=":1285251475_2" function="internal">
        <lane id=":1285251475_2_0" index="0" disallow="tram rail_urban rail rail_electric rail_fast ship" speed="8.33" length="5.04" shape="677.32,1065.42 681.88,1063.26"/>
    </edge>
    <edge id=":1285251475_3" function="internal">
        <lane id=":1285251475_3_0" index="0" disallow="tram rail_urban rail rail_electric rail_fast ship" speed="3.65" length="2.34" shape="677.32,1065.42 678.75,1065.65 679.45,1066.21"/>
    </edge>
    <edge id=":1285251475_5" function="internal">
        <lane id=":1285251475_5_0" index="0" disallow="tram rail_urban rail rail_electric rail_fast ship" speed="3.65" length="2.34" shape="679.45,1066.21 679.42,1067.10 678.66,1068.33"/>
    </edge>
    <edge id=":1285251477_0" function="internal">
        <lane id=":1285251477_0_0" index="0" allow="pedestrian delivery bicycle" speed="5.56" length="9.83" shape="614.70,1156.03 617.50,1155.15 619.52,1154.75 621.40,1154.10 623.76,1152.50"/>
    </edge>
    <edge id=":1285251477_1" function="internal">
        <lane id=":1285251477_1_0" index="0" allow="pedestrian delivery bicycle" speed="3.65" length="4.67" shape="614.70,1156.03 616.11,1156.33 616.78,1156.93 616.70,1157.82 615.88,1159.00"/>
    </edge>
    <edge id=":1285251477_2" function="internal">
        <lane id=":1285251477_2_0" index="0" allow="pedestrian delivery bicycle" speed="5.16" length="5.49" shape="619.96,1161.49 619.24,1159.98 618.32,1159.06 617.20,1158.74 615.88,1159.00"/>
    </edge>
    <edge id=":1285251477_3" function="internal">
        <lane id=":1285251477_3_0" index="0" allow="pedestrian delivery bicycle" speed="5.56" length="10.42" shape="619.96,1161.49 619.61,1159.21 620.13,1156.95 621.51,1154.71 623.76,1152.50"/>
    </edge>
    <edge id=":1285251502_0" function="internal">
        <lane id=":1285251502_0_0" index="0" allow="bicycle" speed="4.04" length="4.78" width="1.00" shape="716.32,1038.44 715.40,1037.14 714.49,1036.57 713.61,1036.72 712.75,1037.59"/>
    </edge>
    <edge id=":1285251502_1" function="internal">
        <lane id=":1285251502_1_0" index="0" allow="bicycle" speed="9.80" length="16.57" width="1.00" shape="716.32,1038.44 713.94,1033.45 712.84,1029.19 713.01,1025.68 714.46,1022.90"/>
    </edge>
    <edge id=":1285251502_2" function="internal">
        <lane id=":1285251502_2_0" index="0" disallow="bicycle tram rail_urban rail rail_electric rail_fast ship" speed="5.83" length="9.46" shape="718.15,1037.41 716.39,1035.01 714.62,1034.04 712.83,1034.50 711.02,1036.39"/>
    </edge>
    <edge id=":1285251502_3" function="internal">
        <lane id=":1285251502_3_0" index="0" disallow="bicycle tram rail_urban rail rail_electric rail_fast ship" speed="9.19" length="14.02" shape="718.15,1037.41 716.03,1033.05 714.97,1029.41 714.98,1026.48 716.04,1024.27"/>
    </edge>
    <edge id=":1285251502_4" function="internal">
        <lane id=":1285251502_4_0" index="0" disallow="bicycle tram rail_urban rail rail_electric rail_fast ship" speed="3.65" length="4.67" shape="718.15,1037.41 718.26,1035.97 718.76,1035.23 719.65,1035.19 720.94,1035.84"/>
    </edge>
    <edge id=":1285251502_5" function="internal">
        <lane id=":1285251502_5_0" index="0" allow="bicycle" speed="6.74" length="7.71" width="1.00" shape="720.05,1027.74 719.94,1028.51 720.35,1029.95 721.29,1032.05 722.77,1034.81"/>
    </edge>
    <edge id=":1285251502_6" function="internal">
        <lane id=":1285251502_6_0" index="0" allow="bicycle" speed="8.33" length="12.27" width="1.00" shape="720.05,1027.74 717.71,1030.53 716.21,1032.51 714.80,1034.58 712.75,1037.59"/>
    </edge>
    <edge id=":1285251502_7" function="internal">
        <lane id=":1285251502_7_0" index="0" disallow="bicycle tram rail_urban rail rail_electric rail_fast ship" speed="7.90" length="10.17" shape="718.47,1026.36 717.97,1027.71 718.22,1029.73 719.21,1032.45 720.94,1035.84"/>
    </edge>
    <edge id=":1285251502_8" function="internal">
        <lane id=":1285251502_8_0" index="0" disallow="bicycle tram rail_urban rail rail_electric rail_fast ship" speed="8.33" length="12.49" shape="718.47,1026.36 716.08,1029.20 714.55,1031.22 713.12,1033.32 711.02,1036.39"/>
    </edge>
    <edge id=":1285251502_9" function="internal">
        <lane id=":1285251502_9_0" index="0" disallow="bicycle tram rail_urban rail rail_electric rail_fast ship" speed="3.65" length="4.67" shape="718.47,1026.36 717.08,1026.75 716.21,1026.53 715.87,1025.70 716.04,1024.27"/>
    </edge>
    <edge id=":1285251502_10" function="internal">
        <lane id=":1285251502_10_0" index="0" allow="bicycle" speed="8.33" length="13.05" width="1.00" shape="706.67,1033.36 708.86,1030.16 710.36,1027.97 711.96,1025.86 714.46,1022.90"/>
    </edge>
    <edge id=":1285251502_11" function="internal">
        <lane id=":1285251502_11_0" index="0" allow="bicycle" speed="8.24" length="21.29" width="1.00" shape="706.67,1033.36 710.85,1028.89 714.92,1027.65 718.90,1029.62 722.77,1034.81"/>
    </edge>
    <edge id=":1285251502_12" function="internal">
        <lane id=":1285251502_12_0" index="0" disallow="bicycle tram rail_urban rail rail_electric rail_fast ship" speed="8.33" length="12.83" shape="708.40,1034.56 710.55,1031.41 712.02,1029.26 713.60,1027.18 716.04,1024.27"/>
    </edge>
    <edge id=":1285251502_13" function="internal">
        <lane id=":1285251502_13_0" index="0" disallow="bicycle tram rail_urban rail rail_electric rail_fast ship" speed="7.50" length="16.60" shape="708.40,1034.56 711.63,1031.11 714.80,1030.18 717.90,1031.76 720.94,1035.84"/>
    </edge>
    <edge id=":1285251502_14" function="internal">
        <lane id=":1285251502_14_0" index="0" disallow="bicycle tram rail_urban rail rail_electric rail_fast ship" speed="3.65" length="4.67" shape="708.40,1034.56 709.74,1034.03 710.62,1034.16 711.05,1034.94 711.02,1036.39"/>
    </edge>
    <edge id=":1286990124_0" function="internal">
        <lane id=":1286990124_0_0" index="0" allow="bicycle" speed="4.37" length="3.40" width="1.00" shape="1045.99,1095.30 1045.18,1095.85 1044.73,1096.49 1044.63,1097.24 1044.87,1098.09"/>
    </edge>
    <edge id=":1286990124_1" function="internal">
        <lane id=":1286990124_1_0" index="0" allow="pedestrian delivery" speed="5.48" length="5.95" shape="1045.49,1094.32 1043.91,1095.33 1042.96,1096.45 1042.65,1097.67 1042.97,1098.98"/>
    </edge>
    <edge id=":1286990124_2" function="internal">
        <lane id=":1286990124_2_0" index="0" allow="pedestrian delivery bicycle" speed="3.65" length="4.67" shape="1045.49,1094.32 1044.05,1094.15 1043.33,1093.62 1043.33,1092.73 1044.03,1091.47"/>
    </edge>
    <edge id=":1286990124_3" function="internal">
        <lane id=":1286990124_3_0" index="0" allow="bicycle" speed="3.82" length="3.22" shape="1040.88,1089.58 1041.37,1090.32 1041.97,1090.72 1042.69,1090.77 1043.53,1090.49"/>
    </edge>
    <edge id=":1286990124_4" function="internal">
        <lane id=":1286990124_4_0" index="0" allow="bicycle" speed="8.33" length="9.40" width="1.00" shape="1040.88,1089.58 1044.87,1098.09"/>
    </edge>
    <edge id=":1286990124_5" function="internal">
        <lane id=":1286990124_5_0" index="0" allow="pedestrian delivery" speed="5.34" length="2.65" shape="1038.98,1090.47 1039.80,1091.62 1040.92,1092.16"/>
    </edge>
    <edge id=":1286990124_6" function="internal">
        <lane id=":1286990124_6_0" index="0" disallow="bicycle tram rail_urban rail rail_electric rail_fast ship" speed="8.33" length="9.40" shape="1038.98,1090.47 1042.97,1098.98"/>
    </edge>
    <edge id=":1286990124_7" function="internal">
        <lane id=":1286990124_7_0" index="0" allow="pedestrian delivery" speed="5.34" length="3.23" shape="1040.92,1092.16 1042.33,1092.11 1044.03,1091.47"/>
    </edge>
    <edge id=":1286990158_0" function="internal">
        <lane id=":1286990158_0_0" index="0" allow="pedestrian delivery bicycle" speed="3.65" length="4.67" shape="1088.66,1048.11 1088.94,1046.70 1089.53,1046.02 1090.42,1046.09 1091.62,1046.89"/>
    </edge>
    <edge id=":1287556263_0" function="internal">