<?xml version="1.0" encoding="UTF-8"?>

<!-- generated on Fr 05 Mär 2021 11:23:09 CET by Eclipse SUMO netedit Version v1_7_0+1228-0b1a97d77e
<configuration xmlns:xsi="http://www.w3.org/2001/XMLSchema-instance" xsi:noNamespaceSchemaLocation="http://sumo.dlr.de/xsd/netconvertConfiguration.xsd">

    <input>
        <sumo-net-file value="b1_exp.net%20.xml"/>
    </input>

    <output>
        <output-file value="/home/kons/GIT/sumo/parameterization_evaluation/b1_exp.net.xml"/>
        <output.street-names value="true"/>
    </output>

    <processing>
        <geometry.min-radius.fix.railways value="false"/>
        <geometry.max-grade.fix value="false"/>
        <offset.disable-normalization value="true"/>
        <lefthand value="false"/>
    </processing>

    <junctions>
        <no-turnarounds value="true"/>
        <junctions.corner-detail value="5"/>
        <junctions.limit-turn-speed value="5.5"/>
        <rectangular-lane-cut value="false"/>
    </junctions>

    <pedestrian>
        <walkingareas value="false"/>
    </pedestrian>

    <report>
        <aggregate-warnings value="5"/>
    </report>

</configuration>
-->

<net version="1.6" junctionCornerDetail="5" limitTurnSpeed="5.50" xmlns:xsi="http://www.w3.org/2001/XMLSchema-instance" xsi:noNamespaceSchemaLocation="http://sumo.dlr.de/xsd/net_file.xsd">

    <location netOffset="-393427.31,-5817630.81" convBoundary="769.17,1133.36,5863.97,2150.94" origBoundary="13.429342,52.492725,13.521797,52.526015" projParameter="+proj=utm +zone=33 +ellps=WGS84 +datum=WGS84 +units=m +no_defs"/>

    <type id="highway.bridleway" priority="1" numLanes="1" speed="2.78" allow="pedestrian" oneway="1" width="2.00"/>
    <type id="highway.bus_guideway" priority="1" numLanes="1" speed="27.78" allow="bus" oneway="1"/>
    <type id="highway.cycleway" priority="1" numLanes="1" speed="8.33" allow="bicycle" oneway="0" width="1.00"/>
    <type id="highway.footway" priority="1" numLanes="1" speed="2.78" allow="pedestrian" oneway="1" width="2.00"/>
    <type id="highway.ford" priority="1" numLanes="1" speed="2.78" allow="army" oneway="0"/>
    <type id="highway.living_street" priority="2" numLanes="1" speed="2.78" disallow="tram rail_urban rail rail_electric rail_fast ship" oneway="0"/>
    <type id="highway.motorway" priority="14" numLanes="2" speed="39.44" allow="private emergency authority army vip passenger hov taxi bus coach delivery truck trailer motorcycle evehicle custom1 custom2" oneway="1"/>
    <type id="highway.motorway_link" priority="9" numLanes="1" speed="22.22" allow="private emergency authority army vip passenger hov taxi bus coach delivery truck trailer motorcycle evehicle custom1 custom2" oneway="1"/>
    <type id="highway.path" priority="1" numLanes="1" speed="2.78" allow="pedestrian bicycle" oneway="0" width="2.00"/>
    <type id="highway.pedestrian" priority="1" numLanes="1" speed="2.78" allow="pedestrian" oneway="1" width="2.00"/>
    <type id="highway.primary" priority="12" numLanes="2" speed="27.78" disallow="tram rail_urban rail rail_electric rail_fast ship" oneway="0"/>
    <type id="highway.primary_link" priority="7" numLanes="1" speed="22.22" disallow="tram rail_urban rail rail_electric rail_fast ship" oneway="0"/>
    <type id="highway.raceway" priority="15" numLanes="2" speed="83.33" allow="vip" oneway="0"/>
    <type id="highway.residential" priority="3" numLanes="1" speed="13.89" disallow="tram rail_urban rail rail_electric rail_fast ship" oneway="0"/>
    <type id="highway.secondary" priority="11" numLanes="1" speed="27.78" disallow="tram rail_urban rail rail_electric rail_fast ship" oneway="0"/>
    <type id="highway.secondary_link" priority="6" numLanes="1" speed="22.22" disallow="tram rail_urban rail rail_electric rail_fast ship" oneway="0"/>
    <type id="highway.service" priority="1" numLanes="1" speed="5.56" allow="pedestrian delivery bicycle" oneway="0"/>
    <type id="highway.stairs" priority="1" numLanes="1" speed="1.39" allow="pedestrian" oneway="1" width="2.00"/>
    <type id="highway.step" priority="1" numLanes="1" speed="1.39" allow="pedestrian" oneway="1" width="2.00"/>
    <type id="highway.steps" priority="1" numLanes="1" speed="1.39" allow="pedestrian" oneway="1" width="2.00"/>
    <type id="highway.tertiary" priority="10" numLanes="1" speed="22.22" disallow="tram rail_urban rail rail_electric rail_fast ship" oneway="0"/>
    <type id="highway.tertiary_link" priority="5" numLanes="1" speed="22.22" disallow="tram rail_urban rail rail_electric rail_fast ship" oneway="0"/>
    <type id="highway.track" priority="1" numLanes="1" speed="5.56" allow="pedestrian motorcycle moped bicycle" oneway="0"/>
    <type id="highway.trunk" priority="13" numLanes="2" speed="27.78" disallow="pedestrian bicycle tram rail_urban rail rail_electric rail_fast ship" oneway="0"/>
    <type id="highway.trunk_link" priority="8" numLanes="1" speed="22.22" disallow="pedestrian bicycle tram rail_urban rail rail_electric rail_fast ship" oneway="0"/>
    <type id="highway.unclassified" priority="4" numLanes="1" speed="13.89" disallow="tram rail_urban rail rail_electric rail_fast ship" oneway="0"/>
    <type id="highway.unsurfaced" priority="1" numLanes="1" speed="8.33" disallow="tram rail_urban rail rail_electric rail_fast ship" oneway="0"/>
    <type id="railway.highspeed" priority="21" numLanes="1" speed="69.44" allow="rail_fast" oneway="1"/>
    <type id="railway.light_rail" priority="19" numLanes="1" speed="27.78" allow="rail_urban" oneway="1"/>
    <type id="railway.preserved" priority="16" numLanes="1" speed="27.78" allow="rail" oneway="1"/>
    <type id="railway.rail" priority="20" numLanes="1" speed="44.44" allow="rail" oneway="1"/>
    <type id="railway.subway" priority="18" numLanes="1" speed="27.78" allow="rail_urban" oneway="1"/>
    <type id="railway.tram" priority="17" numLanes="1" speed="13.89" allow="tram" oneway="1"/>

    <edge id=":100078509_0" function="internal">
        <lane id=":100078509_0_0" index="0" allow="bicycle" speed="5.27" length="6.14" width="1.00" shape="3280.77,1737.91 3279.81,1736.57 3278.64,1735.84 3277.24,1735.74 3275.62,1736.25"/>
    </edge>
    <edge id=":100078509_1" function="internal">
        <lane id=":100078509_1_0" index="0" allow="bicycle" speed="13.89" length="16.06" width="1.00" shape="3280.77,1737.91 3273.45,1723.62"/>
    </edge>
    <edge id=":100078509_2" function="internal">
        <lane id=":100078509_2_0" index="0" disallow="bicycle tram rail_urban rail rail_electric rail_fast ship" speed="6.71" length="3.98" shape="3282.64,1736.95 3281.16,1734.87 3279.95,1734.12"/>
    </edge>
    <edge id=":100078509_3" function="internal">
        <lane id=":100078509_3_0" index="0" disallow="bicycle tram rail_urban rail rail_electric rail_fast ship" speed="13.89" length="16.06" shape="3282.64,1736.95 3275.31,1722.67"/>
        <lane id=":100078509_3_1" index="1" disallow="bicycle tram rail_urban rail rail_electric rail_fast ship" speed="13.89" length="16.06" shape="3285.49,1735.49 3278.16,1721.21"/>
    </edge>
    <edge id=":100078509_16" function="internal">
        <lane id=":100078509_16_0" index="0" disallow="bicycle tram rail_urban rail rail_electric rail_fast ship" speed="6.71" length="5.47" shape="3279.95,1734.12 3279.35,1733.74 3277.20,1733.57 3274.72,1734.35"/>
    </edge>
    <edge id=":100078509_5" function="internal">
        <lane id=":100078509_5_0" index="0" allow="bicycle" speed="13.89" length="12.42" width="1.00" shape="3286.84,1730.93 3275.62,1736.25"/>
    </edge>
    <edge id=":100078509_6" function="internal">
        <lane id=":100078509_6_0" index="0" allow="bicycle" speed="8.67" length="17.13" width="1.00" shape="3286.84,1730.93 3283.09,1731.85 3279.61,1730.93 3276.39,1728.19 3273.45,1723.62"/>
    </edge>
    <edge id=":100078509_7" function="internal">
        <lane id=":100078509_7_0" index="0" disallow="bicycle tram rail_urban rail rail_electric rail_fast ship" speed="13.89" length="12.43" shape="3285.95,1729.03 3274.72,1734.35"/>
    </edge>
    <edge id=":100078509_8" function="internal">
        <lane id=":100078509_8_0" index="0" disallow="bicycle tram rail_urban rail rail_electric rail_fast ship" speed="7.42" length="11.77" shape="3285.95,1729.03 3284.32,1729.08 3282.48,1727.79 3280.43,1725.17 3278.16,1721.21"/>
    </edge>
    <edge id=":100078509_9" function="internal">
        <lane id=":100078509_9_0" index="0" disallow="bicycle tram rail_urban rail rail_electric rail_fast ship" speed="3.65" length="4.67" shape="3285.95,1729.03 3284.52,1728.82 3283.82,1728.26 3283.84,1727.37 3284.58,1726.13"/>
    </edge>
    <edge id=":100078509_10" function="internal">
        <lane id=":100078509_10_0" index="0" allow="bicycle" speed="4.36" length="4.30" width="1.00" shape="3271.06,1726.68 3272.40,1725.92 3273.25,1725.16 3273.59,1724.39 3273.45,1723.62"/>
    </edge>
    <edge id=":100078509_11" function="internal">
        <lane id=":100078509_11_0" index="0" allow="bicycle" speed="13.89" length="12.98" width="1.00" shape="3271.06,1726.68 3274.67,1725.52 3277.37,1725.45 3280.08,1725.39 3283.68,1724.23"/>
    </edge>
    <edge id=":100078509_12" function="internal">
        <lane id=":100078509_12_0" index="0" disallow="bicycle tram rail_urban rail rail_electric rail_fast ship" speed="6.01" length="7.71" shape="3271.97,1728.58 3274.10,1727.29 3275.37,1725.88 3275.77,1724.34 3275.31,1722.67"/>
    </edge>
    <edge id=":100078509_13" function="internal">
        <lane id=":100078509_13_0" index="0" disallow="bicycle tram rail_urban rail rail_electric rail_fast ship" speed="7.59" length="12.96" shape="3273.34,1731.46 3276.68,1729.38 3278.60,1726.97 3279.09,1724.25 3278.16,1721.21"/>
    </edge>
    <edge id=":100078509_14" function="internal">
        <lane id=":100078509_14_0" index="0" disallow="bicycle tram rail_urban rail rail_electric rail_fast ship" speed="13.89" length="12.44" shape="3273.34,1731.46 3284.58,1726.13"/>
    </edge>
    <edge id=":100078509_15" function="internal">
        <lane id=":100078509_15_0" index="0" disallow="bicycle tram rail_urban rail rail_electric rail_fast ship" speed="3.65" length="4.67" shape="3273.34,1731.46 3274.77,1731.67 3275.47,1732.22 3275.46,1733.12 3274.72,1734.35"/>
    </edge>
    <edge id=":100078730_0" function="internal">
        <lane id=":100078730_0_0" index="0" allow="bicycle" speed="13.89" length="9.11" width="1.00" shape="3192.61,1775.79 3184.52,1779.88"/>
        <lane id=":100078730_0_1" index="1" allow="pedestrian delivery" speed="13.89" length="9.11" shape="3191.70,1773.90 3183.52,1778.03"/>
    </edge>
    <edge id=":100078730_2" function="internal">
        <lane id=":100078730_2_0" index="0" allow="pedestrian delivery" speed="7.87" length="4.08" shape="3191.70,1773.90 3188.90,1774.50 3187.76,1774.10"/>
    </edge>
    <edge id=":100078730_3" function="internal">
        <lane id=":100078730_3_0" index="0" disallow="bicycle tram rail_urban rail rail_electric rail_fast ship" speed="3.65" length="2.34" shape="3191.70,1773.90 3190.28,1773.69 3189.57,1773.14"/>
    </edge>
    <edge id=":100078730_14" function="internal">
        <lane id=":100078730_14_0" index="0" allow="pedestrian delivery" speed="7.87" length="9.71" shape="3187.76,1774.10 3186.26,1773.57 3183.79,1771.09 3181.49,1767.07"/>
    </edge>
    <edge id=":100078730_15" function="internal">
        <lane id=":100078730_15_0" index="0" disallow="bicycle tram rail_urban rail rail_electric rail_fast ship" speed="3.65" length="2.34" shape="3189.57,1773.14 3189.59,1772.25 3190.33,1771.01"/>
    </edge>
    <edge id=":100078730_4" function="internal">
        <lane id=":100078730_4_0" index="0" allow="bicycle" speed="4.22" length="3.22" width="1.00" shape="3185.40,1765.27 3185.88,1766.01 3186.48,1766.42 3187.20,1766.49 3188.05,1766.22"/>
    </edge>
    <edge id=":100078730_5" function="internal">
        <lane id=":100078730_5_0" index="0" allow="pedestrian delivery" speed="5.36" length="5.85" shape="3184.40,1765.73 3185.33,1767.28 3186.40,1768.20 3187.61,1768.48 3188.95,1768.12"/>
    </edge>
    <edge id=":100078730_6" function="internal">
        <lane id=":100078730_6_0" index="0" allow="bicycle" speed="8.32" length="14.76" width="1.00" shape="3183.40,1766.19 3185.46,1771.34 3186.33,1775.34 3186.01,1778.18 3184.52,1779.88"/>
    </edge>
    <edge id=":100078730_7" function="internal">
        <lane id=":100078730_7_0" index="0" allow="pedestrian delivery" speed="8.02" length="13.63" shape="3184.40,1765.73 3185.99,1770.05 3186.37,1773.54 3185.55,1776.20 3183.52,1778.03"/>
    </edge>
    <edge id=":100078730_8" function="internal">
        <lane id=":100078730_8_0" index="0" allow="pedestrian delivery bicycle" speed="3.65" length="4.67" shape="3184.40,1765.73 3184.18,1767.15 3183.62,1767.85 3182.72,1767.83 3181.49,1767.07"/>
    </edge>
    <edge id=":100078730_9" function="internal">
        <lane id=":100078730_9_0" index="0" allow="bicycle" speed="5.38" length="6.27" shape="3181.02,1773.36 3181.64,1772.64 3181.76,1771.43 3181.38,1769.73 3180.50,1767.54"/>
    </edge>
    <edge id=":100078730_10" function="internal">
        <lane id=":100078730_10_0" index="0" allow="bicycle" speed="13.89" length="10.18" width="1.00" shape="3181.02,1773.36 3183.34,1771.55 3184.49,1769.71 3185.66,1767.91 3188.05,1766.22"/>
    </edge>
    <edge id=":100078730_11" function="internal">
        <lane id=":100078730_11_0" index="0" allow="pedestrian delivery" speed="6.56" length="2.59" shape="3182.01,1775.21 3182.96,1774.18 3183.11,1772.99"/>
    </edge>
    <edge id=":100078730_12" function="internal">
        <lane id=":100078730_12_0" index="0" allow="pedestrian delivery" speed="13.89" length="9.31" shape="3182.01,1775.21 3190.33,1771.01"/>
    </edge>
    <edge id=":100078730_13" function="internal">
        <lane id=":100078730_13_0" index="0" allow="pedestrian delivery" speed="3.65" length="2.34" shape="3182.01,1775.21 3183.45,1775.34 3184.18,1775.86"/>
    </edge>
    <edge id=":100078730_16" function="internal">
        <lane id=":100078730_16_0" index="0" allow="pedestrian delivery" speed="6.56" length="6.20" shape="3183.11,1772.99 3183.18,1772.48 3182.70,1770.11 3181.49,1767.07"/>
    </edge>
    <edge id=":100078730_17" function="internal">
        <lane id=":100078730_17_0" index="0" allow="pedestrian delivery" speed="3.65" length="2.34" shape="3184.18,1775.86 3184.20,1776.76 3183.52,1778.03"/>
    </edge>
    <edge id=":1000907988_0" function="internal">
        <lane id=":1000907988_0_0" index="0" allow="bicycle" speed="8.33" length="8.15" width="1.00" shape="2786.43,1651.25 2784.44,1643.38"/>
        <lane id=":1000907988_0_1" index="1" disallow="bicycle tram rail_urban rail rail_electric rail_fast ship" speed="8.33" length="8.15" shape="2788.47,1650.77 2786.47,1642.84"/>
    </edge>
    <edge id=":1000907988_2" function="internal">
        <lane id=":1000907988_2_0" index="0" allow="pedestrian delivery" speed="6.86" length="4.05" shape="2788.47,1650.77 2788.39,1648.40 2789.14,1646.90"/>
    </edge>
    <edge id=":1000907988_3" function="internal">
        <lane id=":1000907988_3_0" index="0" disallow="bicycle tram rail_urban rail rail_electric rail_fast ship" speed="3.65" length="2.34" shape="2788.47,1650.77 2788.98,1649.42 2789.66,1648.85"/>
    </edge>
    <edge id=":1000907988_14" function="internal">
        <lane id=":1000907988_14_0" index="0" allow="pedestrian delivery" speed="6.86" length="6.20" shape="2789.14,1646.90 2789.35,1646.48 2791.37,1645.01 2794.44,1643.99"/>
    </edge>
    <edge id=":1000907988_15" function="internal">
        <lane id=":1000907988_15_0" index="0" disallow="bicycle tram rail_urban rail rail_electric rail_fast ship" speed="3.65" length="2.34" shape="2789.66,1648.85 2790.54,1649.05 2791.59,1650.04"/>
    </edge>
    <edge id=":1000907988_4" function="internal">
        <lane id=":1000907988_4_0" index="0" allow="bicycle" speed="3.85" length="2.51" width="1.00" shape="2795.37,1648.19 2794.66,1648.35 2794.05,1648.59 2793.67,1648.96 2793.63,1649.56"/>
    </edge>
    <edge id=":1000907988_5" function="internal">
        <lane id=":1000907988_5_0" index="0" allow="pedestrian delivery" speed="5.06" length="5.10" shape="2795.13,1647.11 2793.40,1647.63 2792.24,1648.29 2791.63,1649.09 2791.59,1650.04"/>
    </edge>
    <edge id=":1000907988_6" function="internal">
        <lane id=":1000907988_6_0" index="0" allow="bicycle" speed="6.95" length="11.88" width="1.00" shape="2794.90,1646.04 2790.79,1646.63 2787.68,1646.39 2785.56,1645.31 2784.44,1643.38"/>
    </edge>
    <edge id=":1000907988_7" function="internal">
        <lane id=":1000907988_7_0" index="0" allow="pedestrian delivery" speed="6.95" length="10.89" shape="2795.13,1647.11 2791.93,1647.43 2789.42,1646.83 2787.59,1645.30 2786.47,1642.84"/>
    </edge>
    <edge id=":1000907988_8" function="internal">
        <lane id=":1000907988_8_0" index="0" allow="pedestrian delivery bicycle" speed="3.65" length="4.67" shape="2795.13,1647.11 2793.79,1646.59 2793.23,1645.89 2793.44,1645.03 2794.44,1643.99"/>
    </edge>
    <edge id=":1000907988_9" function="internal">
        <lane id=":1000907988_9_0" index="0" allow="bicycle" speed="4.01" length="3.38" shape="2791.59,1641.47 2791.94,1642.27 2792.50,1642.78 2793.25,1643.00 2794.20,1642.91"/>
    </edge>
    <edge id=":1000907988_10" function="internal">
        <lane id=":1000907988_10_0" index="0" allow="bicycle" speed="8.33" length="8.34" width="1.00" shape="2791.59,1641.47 2793.63,1649.56"/>
    </edge>
    <edge id=":1000907988_11" function="internal">
        <lane id=":1000907988_11_0" index="0" allow="pedestrian delivery" speed="5.48" length="2.59" shape="2789.56,1642.01 2790.15,1643.22 2791.16,1643.95"/>
    </edge>
    <edge id=":1000907988_12" function="internal">
        <lane id=":1000907988_12_0" index="0" disallow="bicycle tram rail_urban rail rail_electric rail_fast ship" speed="8.33" length="8.28" shape="2789.56,1642.01 2791.59,1650.04"/>
    </edge>
    <edge id=":1000907988_13" function="internal">
        <lane id=":1000907988_13_0" index="0" disallow="bicycle tram rail_urban rail rail_electric rail_fast ship" speed="3.65" length="2.34" shape="2789.56,1642.01 2789.09,1643.38 2788.43,1643.97"/>
    </edge>
    <edge id=":1000907988_16" function="internal">
        <lane id=":1000907988_16_0" index="0" allow="pedestrian delivery" speed="5.48" length="3.31" shape="2791.16,1643.95 2792.59,1644.20 2794.44,1643.99"/>
    </edge>
    <edge id=":1000907988_17" function="internal">
        <lane id=":1000907988_17_0" index="0" disallow="bicycle tram rail_urban rail rail_electric rail_fast ship" speed="3.65" length="2.34" shape="2788.43,1643.97 2787.55,1643.79 2786.47,1642.84"/>
    </edge>
    <edge id=":1000907999_0" function="internal">
        <lane id=":1000907999_0_0" index="0" allow="pedestrian delivery bicycle" speed="5.56" length="0.31" shape="2797.87,1646.50 2797.57,1646.57"/>
    </edge>
    <edge id=":1000907999_1" function="internal">
        <lane id=":1000907999_1_0" index="0" allow="pedestrian delivery bicycle" speed="5.56" length="0.25" shape="2796.88,1643.45 2797.12,1643.39"/>
    </edge>
    <edge id=":1000908001_0" function="internal">
        <lane id=":1000908001_0_0" index="0" allow="pedestrian delivery bicycle" speed="5.56" length="0.31" shape="2960.25,1617.70 2959.94,1617.76"/>
    </edge>
    <edge id=":1000908001_1" function="internal">
        <lane id=":1000908001_1_0" index="0" allow="pedestrian delivery bicycle" speed="5.56" length="0.28" shape="2959.35,1614.62 2959.62,1614.56"/>
    </edge>
    <edge id=":1000908011_0" function="internal">
        <lane id=":1000908011_0_0" index="0" allow="bicycle" speed="3.90" length="3.27" shape="2966.72,1619.57 2966.42,1618.74 2965.92,1618.21 2965.22,1617.96 2964.31,1618.02"/>
    </edge>
    <edge id=":1000908011_1" function="internal">
        <lane id=":1000908011_1_0" index="0" allow="bicycle" speed="8.33" length="9.41" width="1.00" shape="2966.72,1619.57 2964.81,1610.37"/>
    </edge>
    <edge id=":1000908011_2" function="internal">
        <lane id=":1000908011_2_0" index="0" allow="pedestrian delivery" speed="5.40" length="2.62" shape="2968.78,1619.16 2968.26,1617.88 2967.30,1617.09"/>
    </edge>
    <edge id=":1000908011_3" function="internal">
        <lane id=":1000908011_3_0" index="0" disallow="bicycle tram rail_urban rail rail_electric rail_fast ship" speed="8.33" length="9.43" shape="2968.78,1619.16 2966.86,1609.93"/>
    </edge>
    <edge id=":1000908011_4" function="internal">
        <lane id=":1000908011_4_0" index="0" disallow="bicycle tram rail_urban rail rail_electric rail_fast ship" speed="3.65" length="2.34" shape="2968.78,1619.16 2969.33,1617.82 2970.03,1617.27"/>
    </edge>
    <edge id=":1000908011_14" function="internal">
        <lane id=":1000908011_14_0" index="0" allow="pedestrian delivery" speed="5.40" length="3.25" shape="2967.30,1617.09 2965.91,1616.77 2964.09,1616.94"/>
    </edge>
    <edge id=":1000908011_15" function="internal">
        <lane id=":1000908011_15_0" index="0" disallow="bicycle tram rail_urban rail rail_electric rail_fast ship" speed="3.65" length="2.34" shape="2970.03,1617.27 2970.90,1617.51 2971.92,1618.52"/>
    </edge>
    <edge id=":1000908011_5" function="internal">
        <lane id=":1000908011_5_0" index="0" allow="bicycle" speed="8.33" length="9.47" width="1.00" shape="2972.04,1608.82 2973.98,1618.11"/>
        <lane id=":1000908011_5_1" index="1" disallow="bicycle tram rail_urban rail rail_electric rail_fast ship" speed="8.33" length="9.47" shape="2969.99,1609.26 2971.92,1618.52"/>
    </edge>
    <edge id=":1000908011_7" function="internal">
        <lane id=":1000908011_7_0" index="0" allow="pedestrian delivery" speed="6.95" length="4.85" shape="2969.99,1609.26 2970.12,1612.08 2969.33,1613.95"/>
    </edge>
    <edge id=":1000908011_8" function="internal">
        <lane id=":1000908011_8_0" index="0" disallow="bicycle tram rail_urban rail rail_electric rail_fast ship" speed="3.65" length="2.34" shape="2969.99,1609.26 2969.46,1610.60 2968.76,1611.16"/>
    </edge>
    <edge id=":1000908011_16" function="internal">
        <lane id=":1000908011_16_0" index="0" allow="pedestrian delivery" speed="6.95" length="6.21" shape="2969.33,1613.95 2969.18,1614.30 2967.17,1615.92 2964.09,1616.94"/>
    </edge>
    <edge id=":1000908011_17" function="internal">
        <lane id=":1000908011_17_0" index="0" disallow="bicycle tram rail_urban rail rail_electric rail_fast ship" speed="3.65" length="2.34" shape="2968.76,1611.16 2967.89,1610.93 2966.86,1609.93"/>
    </edge>
    <edge id=":1000908011_9" function="internal">
        <lane id=":1000908011_9_0" index="0" allow="bicycle" speed="4.22" length="3.22" width="1.00" shape="2963.26,1612.72 2964.09,1612.43 2964.63,1611.94 2964.87,1611.25 2964.81,1610.37"/>
    </edge>
    <edge id=":1000908011_10" function="internal">
        <lane id=":1000908011_10_0" index="0" allow="pedestrian delivery" speed="5.36" length="5.85" shape="2963.47,1613.80 2965.20,1613.26 2966.34,1612.43 2966.89,1611.32 2966.86,1609.93"/>
    </edge>
    <edge id=":1000908011_11" function="internal">
        <lane id=":1000908011_11_0" index="0" allow="bicycle" speed="6.95" length="12.00" width="1.00" shape="2963.69,1614.88 2967.80,1614.39 2970.89,1614.77 2972.95,1616.00 2973.98,1618.11"/>
    </edge>
    <edge id=":1000908011_12" function="internal">
        <lane id=":1000908011_12_0" index="0" allow="pedestrian delivery" speed="6.95" length="11.01" shape="2963.47,1613.80 2966.70,1613.56 2969.18,1614.27 2970.92,1615.92 2971.92,1618.52"/>
    </edge>
    <edge id=":1000908011_13" function="internal">
        <lane id=":1000908011_13_0" index="0" allow="pedestrian delivery bicycle" speed="3.65" length="4.67" shape="2963.47,1613.80 2964.80,1614.35 2965.35,1615.06 2965.12,1615.92 2964.09,1616.94"/>
    </edge>
    <edge id=":1000908013_0" function="internal">
        <lane id=":1000908013_0_0" index="0" allow="pedestrian delivery bicycle" speed="5.56" length="9.50" shape="2924.38,1624.38 2915.02,1626.00"/>
    </edge>
    <edge id=":1000908013_1" function="internal">
        <lane id=":1000908013_1_0" index="0" allow="pedestrian delivery bicycle" speed="5.56" length="10.22" shape="2924.38,1624.38 2921.63,1624.47 2919.49,1623.65 2917.93,1621.90 2916.98,1619.23"/>
    </edge>
    <edge id=":1000908013_2" function="internal">
        <lane id=":1000908013_2_0" index="0" allow="pedestrian delivery bicycle" speed="3.65" length="4.67" shape="2924.38,1624.38 2923.05,1623.81 2922.51,1623.09 2922.76,1622.23 2923.80,1621.23"/>
    </edge>
    <edge id=":1000908013_3" function="internal">
        <lane id=":1000908013_3_0" index="0" allow="pedestrian delivery bicycle" speed="5.14" length="5.15" shape="2920.11,1618.57 2920.59,1619.94 2921.37,1620.84 2922.44,1621.27 2923.80,1621.23"/>
    </edge>
    <edge id=":1000908013_4" function="internal">
        <lane id=":1000908013_4_0" index="0" allow="pedestrian delivery bicycle" speed="5.56" length="10.38" shape="2920.11,1618.57 2920.29,1621.43 2919.51,1623.62 2917.75,1625.14 2915.02,1626.00"/>
    </edge>
    <edge id=":1000908013_5" function="internal">
        <lane id=":1000908013_5_0" index="0" allow="pedestrian delivery bicycle" speed="3.65" length="4.67" shape="2920.11,1618.57 2919.57,1619.91 2918.87,1620.46 2918.01,1620.24 2916.98,1619.23"/>
    </edge>
    <edge id=":1000908013_6" function="internal">
        <lane id=":1000908013_6_0" index="0" allow="pedestrian delivery bicycle" speed="4.99" length="5.05" shape="2914.50,1622.84 2915.83,1622.43 2916.69,1621.68 2917.07,1620.62 2916.98,1619.23"/>
    </edge>
    <edge id=":1000908013_7" function="internal">
        <lane id=":1000908013_7_0" index="0" allow="pedestrian delivery bicycle" speed="5.56" length="9.44" shape="2914.50,1622.84 2923.80,1621.23"/>
    </edge>
    <edge id=":1000908013_8" function="internal">
        <lane id=":1000908013_8_0" index="0" allow="pedestrian delivery bicycle" speed="3.65" length="4.67" shape="2914.50,1622.84 2915.81,1623.44 2916.34,1624.16 2916.07,1625.02 2915.02,1626.00"/>
    </edge>
    <edge id=":1000908026_0" function="internal">
        <lane id=":1000908026_0_0" index="0" allow="pedestrian delivery bicycle" speed="3.65" length="4.67" shape="2913.36,1601.99 2913.90,1600.65 2914.60,1600.09 2915.47,1600.32 2916.50,1601.33"/>
    </edge>
    <edge id=":1000917521_0" function="internal">
        <lane id=":1000917521_0_0" index="0" allow="pedestrian delivery bicycle" speed="5.56" length="0.11" shape="2809.83,1643.63 2809.73,1643.65"/>
    </edge>
    <edge id=":1000917521_1" function="internal">
        <lane id=":1000917521_1_0" index="0" allow="pedestrian delivery bicycle" speed="5.56" length="0.32" shape="2808.98,1640.54 2809.30,1640.47"/>
    </edge>
    <edge id=":1000917538_0" function="internal">
        <lane id=":1000917538_0_0" index="0" allow="pedestrian delivery bicycle" speed="5.56" length="0.31" shape="2948.23,1619.97 2947.93,1620.03"/>
    </edge>
    <edge id=":1000917538_1" function="internal">
        <lane id=":1000917538_1_0" index="0" allow="pedestrian delivery bicycle" speed="5.56" length="0.29" shape="2947.35,1616.88 2947.64,1616.83"/>
    </edge>
    <edge id=":1007491637_0" function="internal">
        <lane id=":1007491637_0_0" index="0" allow="tram" speed="13.89" length="0.29" shape="1657.61,2002.93 1657.55,2003.22"/>
    </edge>
    <edge id=":1007491655_0" function="internal">
        <lane id=":1007491655_0_0" index="0" allow="tram" speed="13.89" length="0.30" shape="1639.66,1999.74 1639.72,1999.45"/>
    </edge>
    <edge id=":1007748730_0" function="internal">
        <lane id=":1007748730_0_0" index="0" allow="bicycle" speed="4.14" length="2.63" width="1.00" shape="3288.84,1732.35 3288.49,1731.68 3288.10,1731.10 3287.62,1730.77 3287.02,1730.84"/>
    </edge>
    <edge id=":1007748730_1" function="internal">
        <lane id=":1007748730_1_0" index="0" allow="bicycle" speed="13.89" length="11.55" width="1.00" shape="3288.84,1732.35 3283.58,1722.06"/>
    </edge>
    <edge id=":1007748730_2" function="internal">
        <lane id=":1007748730_2_0" index="0" allow="bicycle" speed="7.88" length="10.97" width="1.00" shape="3288.84,1732.35 3287.12,1728.55 3286.36,1725.61 3286.56,1723.54 3287.72,1722.32"/>
    </edge>
    <edge id=":1007748730_3" function="internal">
        <lane id=":1007748730_3_0" index="0" allow="tram" speed="13.89" length="11.52" shape="3290.70,1731.37 3285.46,1721.12"/>
    </edge>
    <edge id=":1007748730_4" function="internal">
        <lane id=":1007748730_4_0" index="0" allow="bicycle" speed="13.89" length="4.46" width="1.00" shape="3291.06,1728.93 3287.02,1730.84"/>
    </edge>
    <edge id=":1007748730_5" function="internal">
        <lane id=":1007748730_5_0" index="0" allow="bicycle" speed="6.94" length="10.98" width="1.00" shape="3291.06,1728.93 3289.37,1729.08 3287.56,1727.99 3285.63,1725.65 3283.58,1722.06"/>
    </edge>
    <edge id=":1007748730_6" function="internal">
        <lane id=":1007748730_6_0" index="0" disallow="bicycle tram rail_urban rail rail_electric rail_fast ship" speed="13.89" length="4.45" shape="3290.15,1727.03 3286.13,1728.94"/>
    </edge>
    <edge id=":1007748730_7" function="internal">
        <lane id=":1007748730_7_0" index="0" disallow="bicycle tram rail_urban rail rail_electric rail_fast ship" speed="3.65" length="4.68" shape="3290.15,1727.03 3288.71,1726.90 3287.98,1726.39 3287.95,1725.49 3288.63,1724.22"/>
    </edge>
    <edge id=":1007748730_8" function="internal">
        <lane id=":1007748730_8_0" index="0" allow="bicycle" speed="3.37" length="2.43" width="1.00" shape="3283.86,1724.15 3284.26,1723.77 3284.23,1723.28 3283.94,1722.70 3283.58,1722.06"/>
    </edge>
    <edge id=":1007748730_9" function="internal">
        <lane id=":1007748730_9_0" index="0" allow="bicycle" speed="13.89" length="4.27" width="1.00" shape="3283.86,1724.15 3287.72,1722.32"/>