<?xml version="1.0" ?>
<additional xmlns:xsi="http://www.w3.org/2001/XMLSchema-instance" xsi:noNamespaceSchemaLocation="http://sumo.dlr.de/xsd/additional_file.xsd">
   <vTypeDistribution id="vehDist">
      <vType accel="0.874" id="vehDist0" maxSpeed="6.450" speedDev="0.000" speedFactor="4.000" vClass="bicycle">
         <param key="has.fcd.device" value="true"/>
      </vType>
      <vType accel="1.136" id="vehDist1" maxSpeed="7.035" speedDev="0.000" speedFactor="4.000" vClass="bicycle">
         <param key="has.fcd.device" value="true"/>
      </vType>
      <vType accel="0.556" id="vehDist2" maxSpeed="8.181" speedDev="0.000" speedFactor="4.000" vClass="bicycle">
         <param key="has.fcd.device" value="true"/>
      </vType>
      <vType accel="0.506" id="vehDist3" maxSpeed="6.731" speedDev="0.000" speedFactor="4.000" vClass="bicycle">
         <param key="has.fcd.device" value="true"/>
      </vType>
      <vType accel="1.117" id="vehDist4" maxSpeed="9.712" speedDev="0.000" speedFactor="4.000" vClass="bicycle">
         <param key="has.fcd.device" value="true"/>
      </vType>
      <vType accel="0.689" id="vehDist5" maxSpeed="9.675" speedDev="0.000" speedFactor="4.000" vClass="bicycle">
         <param key="has.fcd.device" value="true"/>
      </vType>
      <vType accel="1.192" id="vehDist6" maxSpeed="7.860" speedDev="0.000" speedFactor="4.000" vClass="bicycle">
         <param key="has.fcd.device" value="true"/>
      </vType>
      <vType accel="0.639" id="vehDist7" maxSpeed="5.728" speedDev="0.000" speedFactor="4.000" vClass="bicycle">
         <param key="has.fcd.device" value="true"/>
      </vType>
      <vType accel="0.564" id="vehDist8" maxSpeed="7.857" speedDev="0.000" speedFactor="4.000" vClass="bicycle">
         <param key="has.fcd.device" value="true"/>
      </vType>
      <vType accel="0.737" id="vehDist9" maxSpeed="8.319" speedDev="0.000" speedFactor="4.000" vClass="bicycle">
         <param key="has.fcd.device" value="true"/>
      </vType>
      <vType accel="0.568" id="vehDist10" maxSpeed="7.765" speedDev="0.000" speedFactor="4.000" vClass="bicycle">
         <param key="has.fcd.device" value="true"/>
      </vType>
      <vType accel="0.698" id="vehDist11" maxSpeed="8.796" speedDev="0.000" speedFactor="4.000" vClass="bicycle">
         <param key="has.fcd.device" value="true"/>
      </vType>
      <vType accel="0.925" id="vehDist12" maxSpeed="9.402" speedDev="0.000" speedFactor="4.000" vClass="bicycle">
         <param key="has.fcd.device" value="true"/>
      </vType>
      <vType accel="0.671" id="vehDist13" maxSpeed="7.493" speedDev="0.000" speedFactor="4.000" vClass="bicycle">
         <param key="has.fcd.device" value="true"/>
      </vType>
      <vType accel="1.179" id="vehDist14" maxSpeed="6.900" speedDev="0.000" speedFactor="4.000" vClass="bicycle">
         <param key="has.fcd.device" value="true"/>
      </vType>
      <vType accel="1.035" id="vehDist15" maxSpeed="5.286" speedDev="0.000" speedFactor="4.000" vClass="bicycle">
         <param key="has.fcd.device" value="true"/>
      </vType>
      <vType accel="0.985" id="vehDist16" maxSpeed="5.444" speedDev="0.000" speedFactor="4.000" vClass="bicycle">
         <param key="has.fcd.device" value="true"/>
      </vType>
      <vType accel="0.503" id="vehDist17" maxSpeed="8.687" speedDev="0.000" speedFactor="4.000" vClass="bicycle">
         <param key="has.fcd.device" value="true"/>
      </vType>
      <vType accel="0.810" id="vehDist18" maxSpeed="5.699" speedDev="0.000" speedFactor="4.000" vClass="bicycle">
         <param key="has.fcd.device" value="true"/>
      </vType>
      <vType accel="0.867" id="vehDist19" maxSpeed="8.854" speedDev="0.000" speedFactor="4.000" vClass="bicycle">
         <param key="has.fcd.device" value="true"/>
      </vType>
      <vType accel="1.075" id="vehDist20" maxSpeed="6.689" speedDev="0.000" speedFactor="4.000" vClass="bicycle">
         <param key="has.fcd.device" value="true"/>
      </vType>
      <vType accel="0.450" id="vehDist21" maxSpeed="8.113" speedDev="0.000" speedFactor="4.000" vClass="bicycle">
         <param key="has.fcd.device" value="true"/>
      </vType>
      <vType accel="0.786" id="vehDist22" maxSpeed="6.987" speedDev="0.000" speedFactor="4.000" vClass="bicycle">
         <param key="has.fcd.device" value="true"/>
      </vType>
      <vType accel="0.875" id="vehDist23" maxSpeed="6.046" speedDev="0.000" speedFactor="4.000" vClass="bicycle">
         <param key="has.fcd.device" value="true"/>
      </vType>
      <vType accel="0.753" id="vehDist24" maxSpeed="5.893" speedDev="0.000" speedFactor="4.000" vClass="bicycle">
         <param key="has.fcd.device" value="true"/>
      </vType>
      <vType accel="0.635" id="vehDist25" maxSpeed="6.292" speedDev="0.000" speedFactor="4.000" vClass="bicycle">
         <param key="has.fcd.device" value="true"/>
      </vType>
      <vType accel="0.457" id="vehDist26" maxSpeed="6.339" speedDev="0.000" speedFactor="4.000" vClass="bicycle">
         <param key="has.fcd.device" value="true"/>
      </vType>
      <vType accel="0.753" id="vehDist27" maxSpeed="8.322" speedDev="0.000" speedFactor="4.000" vClass="bicycle">
         <param key="has.fcd.device" value="true"/>
      </vType>
      <vType accel="0.494" id="vehDist28" maxSpeed="6.859" speedDev="0.000" speedFactor="4.000" vClass="bicycle">
         <param key="has.fcd.device" value="true"/>
      </vType>
      <vType accel="1.123" id="vehDist29" maxSpeed="6.848" speedDev="0.000" speedFactor="4.000" vClass="bicycle">
         <param key="has.fcd.device" value="true"/>
      </vType>
      <vType accel="1.025" id="vehDist30" maxSpeed="5.689" speedDev="0.000" speedFactor="4.000" vClass="bicycle">
         <param key="has.fcd.device" value="true"/>
      </vType>
      <vType accel="0.762" id="vehDist31" maxSpeed="6.113" speedDev="0.000" speedFactor="4.000" vClass="bicycle">
         <param key="has.fcd.device" value="true"/>
      </vType>
      <vType accel="0.834" id="vehDist32" maxSpeed="8.430" speedDev="0.000" speedFactor="4.000" vClass="bicycle">
         <param key="has.fcd.device" value="true"/>
      </vType>
      <vType accel="0.802" id="vehDist33" maxSpeed="6.966" speedDev="0.000" speedFactor="4.000" vClass="bicycle">
         <param key="has.fcd.device" value="true"/>
      </vType>
      <vType accel="0.775" id="vehDist34" maxSpeed="7.814" speedDev="0.000" speedFactor="4.000" vClass="bicycle">
         <param key="has.fcd.device" value="true"/>
      </vType>
      <vType accel="0.591" id="vehDist35" maxSpeed="7.728" speedDev="0.000" speedFactor="4.000" vClass="bicycle">
         <param key="has.fcd.device" value="true"/>
      </vType>
      <vType accel="0.819" id="vehDist36" maxSpeed="5.818" speedDev="0.000" speedFactor="4.000" vClass="bicycle">
         <param key="has.fcd.device" value="true"/>
      </vType>
      <vType accel="0.941" id="vehDist37" maxSpeed="6.419" speedDev="0.000" speedFactor="4.000" vClass="bicycle">
         <param key="has.fcd.device" value="true"/>
      </vType>
      <vType accel="1.041" id="vehDist38" maxSpeed="7.954" speedDev="0.000" speedFactor="4.000" vClass="bicycle">
         <param key="has.fcd.device" value="true"/>
      </vType>
      <vType accel="0.723" id="vehDist39" maxSpeed="8.236" speedDev="0.000" speedFactor="4.000" vClass="bicycle">
         <param key="has.fcd.device" value="true"/>
      </vType>
      <vType accel="0.617" id="vehDist40" maxSpeed="7.946" speedDev="0.000" speedFactor="4.000" vClass="bicycle">
         <param key="has.fcd.device" value="true"/>
      </vType>
      <vType accel="0.480" id="vehDist41" maxSpeed="5.053" speedDev="0.000" speedFactor="4.000" vClass="bicycle">
         <param key="has.fcd.device" value="true"/>
      </vType>
      <vType accel="0.568" id="vehDist42" maxSpeed="6.827" speedDev="0.000" speedFactor="4.000" vClass="bicycle">
         <param key="has.fcd.device" value="true"/>
      </vType>
      <vType accel="1.012" id="vehDist43" maxSpeed="4.800" speedDev="0.000" speedFactor="4.000" vClass="bicycle">
         <param key="has.fcd.device" value="true"/>
      </vType>
      <vType accel="0.553" id="vehDist44" maxSpeed="8.024" speedDev="0.000" speedFactor="4.000" vClass="bicycle">
         <param key="has.fcd.device" value="true"/>
      </vType>
      <vType accel="0.891" id="vehDist45" maxSpeed="6.921" speedDev="0.000" speedFactor="4.000" vClass="bicycle">
         <param key="has.fcd.device" value="true"/>
      </vType>
      <vType accel="0.763" id="vehDist46" maxSpeed="7.779" speedDev="0.000" speedFactor="4.000" vClass="bicycle">
         <param key="has.fcd.device" value="true"/>
      </vType>
      <vType accel="1.050" id="vehDist47" maxSpeed="7.056" speedDev="0.000" speedFactor="4.000" vClass="bicycle">
         <param key="has.fcd.device" value="true"/>
      </vType>
      <vType accel="1.206" id="vehDist48" maxSpeed="9.501" speedDev="0.000" speedFactor="4.000" vClass="bicycle">
         <param key="has.fcd.device" value="true"/>
      </vType>
      <vType accel="0.630" id="vehDist49" maxSpeed="8.672" speedDev="0.000" speedFactor="4.000" vClass="bicycle">
         <param key="has.fcd.device" value="true"/>
      </vType>
      <vType accel="0.685" id="vehDist50" maxSpeed="6.570" speedDev="0.000" speedFactor="4.000" vClass="bicycle">
         <param key="has.fcd.device" value="true"/>
      </vType>
      <vType accel="0.999" id="vehDist51" maxSpeed="8.161" speedDev="0.000" speedFactor="4.000" vClass="bicycle">
         <param key="has.fcd.device" value="true"/>
      </vType>
      <vType accel="0.785" id="vehDist52" maxSpeed="8.329" speedDev="0.000" speedFactor="4.000" vClass="bicycle">
         <param key="has.fcd.device" value="true"/>
      </vType>
      <vType accel="1.099" id="vehDist53" maxSpeed="7.919" speedDev="0.000" speedFactor="4.000" vClass="bicycle">
         <param key="has.fcd.device" value="true"/>
      </vType>
      <vType accel="1.091" id="vehDist54" maxSpeed="5.323" speedDev="0.000" speedFactor="4.000" vClass="bicycle">
         <param key="has.fcd.device" value="true"/>
      </vType>
      <vType accel="0.959" id="vehDist55" maxSpeed="7.868" speedDev="0.000" speedFactor="4.000" vClass="bicycle">
         <param key="has.fcd.device" value="true"/>
      </vType>
      <vType accel="0.689" id="vehDist56" maxSpeed="4.905" speedDev="0.000" speedFactor="4.000" vClass="bicycle">
         <param key="has.fcd.device" value="true"/>
      </vType>
      <vType accel="0.871" id="vehDist57" maxSpeed="9.314" speedDev="0.000" speedFactor="4.000" vClass="bicycle">
         <param key="has.fcd.device" value="true"/>
      </vType>
      <vType accel="0.745" id="vehDist58" maxSpeed="7.946" speedDev="0.000" speedFactor="4.000" vClass="bicycle">
         <param key="has.fcd.device" value="true"/>
      </vType>
      <vType accel="0.950" id="vehDist59" maxSpeed="6.359" speedDev="0.000" speedFactor="4.000" vClass="bicycle">
         <param key="has.fcd.device" value="true"/>
      </vType>
      <vType accel="0.748" id="vehDist60" maxSpeed="5.462" speedDev="0.000" speedFactor="4.000" vClass="bicycle">
         <param key="has.fcd.device" value="true"/>
      </vType>
      <vType accel="0.614" id="vehDist61" maxSpeed="6.793" speedDev="0.000" speedFactor="4.000" vClass="bicycle">
         <param key="has.fcd.device" value="true"/>
      </vType>
      <vType accel="0.939" id="vehDist62" maxSpeed="7.054" speedDev="0.000" speedFactor="4.000" vClass="bicycle">
         <param key="has.fcd.device" value="true"/>
      </vType>
      <vType accel="0.689" id="vehDist63" maxSpeed="8.257" speedDev="0.000" speedFactor="4.000" vClass="bicycle">
         <param key="has.fcd.device" value="true"/>
      </vType>
      <vType accel="0.428" id="vehDist64" maxSpeed="7.819" speedDev="0.000" speedFactor="4.000" vClass="bicycle">
         <param key="has.fcd.device" value="true"/>
      </vType>
      <vType accel="0.909" id="vehDist65" maxSpeed="5.901" speedDev="0.000" speedFactor="4.000" vClass="bicycle">
         <param key="has.fcd.device" value="true"/>
      </vType>
      <vType accel="0.707" id="vehDist66" maxSpeed="7.239" speedDev="0.000" speedFactor="4.000" vClass="bicycle">
         <param key="has.fcd.device" value="true"/>
      </vType>
      <vType accel="0.505" id="vehDist67" maxSpeed="7.313" speedDev="0.000" speedFactor="4.000" vClass="bicycle">
         <param key="has.fcd.device" value="true"/>
      </vType>
      <vType accel="0.712" id="vehDist68" maxSpeed="8.498" speedDev="0.000" speedFactor="4.000" vClass="bicycle">
         <param key="has.fcd.device" value="true"/>
      </vType>
      <vType accel="1.136" id="vehDist69" maxSpeed="7.164" speedDev="0.000" speedFactor="4.000" vClass="bicycle">
         <param key="has.fcd.device" value="true"/>
      </vType>
      <vType accel="0.499" id="vehDist70" maxSpeed="8.813" speedDev="0.000" speedFactor="4.000" vClass="bicycle">
         <param key="has.fcd.device" value="true"/>
      </vType>
      <vType accel="0.888" id="vehDist71" maxSpeed="5.606" speedDev="0.000" speedFactor="4.000" vClass="bicycle">
         <param key="has.fcd.device" value="true"/>
      </vType>
      <vType accel="0.660" id="vehDist72" maxSpeed="7.390" speedDev="0.000" speedFactor="4.000" vClass="bicycle">
         <param key="has.fcd.device" value="true"/>
      </vType>
      <vType accel="0.418" id="vehDist73" maxSpeed="7.877" speedDev="0.000" speedFactor="4.000" vClass="bicycle">
         <param key="has.fcd.device" value="true"/>
      </vType>
      <vType accel="0.720" id="vehDist74" maxSpeed="6.963" speedDev="0.000" speedFactor="4.000" vClass="bicycle">
         <param key="has.fcd.device" value="true"/>
      </vType>
      <vType accel="0.436" id="vehDist75" maxSpeed="8.032" speedDev="0.000" speedFactor="4.000" vClass="bicycle">
         <param key="has.fcd.device" value="true"/>
      </vType>
      <vType accel="0.542" id="vehDist76" maxSpeed="6.363" speedDev="0.000" speedFactor="4.000" vClass="bicycle">
         <param key="has.fcd.device" value="true"/>
      </vType>
      <vType accel="0.862" id="vehDist77" maxSpeed="6.259" speedDev="0.000" speedFactor="4.000" vClass="bicycle">
         <param key="has.fcd.device" value="true"/>
      </vType>
      <vType accel="0.781" id="vehDist78" maxSpeed="5.832" speedDev="0.000" speedFactor="4.000" vClass="bicycle">
         <param key="has.fcd.device" value="true"/>
      </vType>
      <vType accel="0.759" id="vehDist79" maxSpeed="7.155" speedDev="0.000" speedFactor="4.000" vClass="bicycle">
         <param key="has.fcd.device" value="true"/>
      </vType>
      <vType accel="0.866" id="vehDist80" maxSpeed="6.580" speedDev="0.000" speedFactor="4.000" vClass="bicycle">
         <param key="has.fcd.device" value="true"/>
      </vType>
      <vType accel="0.508" id="vehDist81" maxSpeed="5.235" speedDev="0.000" speedFactor="4.000" vClass="bicycle">
         <param key="has.fcd.device" value="true"/>
      </vType>
      <vType accel="0.619" id="vehDist82" maxSpeed="8.437" speedDev="0.000" speedFactor="4.000" vClass="bicycle">
         <param key="has.fcd.device" value="true"/>
      </vType>
      <vType accel="0.690" id="vehDist83" maxSpeed="9.179" speedDev="0.000" speedFactor="4.000" vClass="bicycle">
         <param key="has.fcd.device" value="true"/>
      </vType>
      <vType accel="1.085" id="vehDist84" maxSpeed="7.489" speedDev="0.000" speedFactor="4.000" vClass="bicycle">
         <param key="has.fcd.device" value="true"/>
      </vType>
      <vType accel="1.192" id="vehDist85" maxSpeed="4.895" speedDev="0.000" speedFactor="4.000" vClass="bicycle">
         <param key="has.fcd.device" value="true"/>
      </vType>
      <vType accel="0.935" id="vehDist86" maxSpeed="5.630" speedDev="0.000" speedFactor="4.000" vClass="bicycle">
         <param key="has.fcd.device" value="true"/>
      </vType>
      <vType accel="1.149" id="vehDist87" maxSpeed="7.911" speedDev="0.000" speedFactor="4.000" vClass="bicycle">
         <param key="has.fcd.device" value="true"/>
      </vType>
      <vType accel="1.038" id="vehDist88" maxSpeed="9.711" speedDev="0.000" speedFactor="4.000" vClass="bicycle">
         <param key="has.fcd.device" value="true"/>
      </vType>
      <vType accel="1.003" id="vehDist89" maxSpeed="6.942" speedDev="0.000" speedFactor="4.000" vClass="bicycle">
         <param key="has.fcd.device" value="true"/>
      </vType>
      <vType accel="0.814" id="vehDist90" maxSpeed="9.473" speedDev="0.000" speedFactor="4.000" vClass="bicycle">
         <param key="has.fcd.device" value="true"/>
      </vType>
      <vType accel="0.974" id="vehDist91" maxSpeed="7.467" speedDev="0.000" speedFactor="4.000" vClass="bicycle">
         <param key="has.fcd.device" value="true"/>
      </vType>
      <vType accel="0.703" id="vehDist92" maxSpeed="8.671" speedDev="0.000" speedFactor="4.000" vClass="bicycle">
         <param key="has.fcd.device" value="true"/>
      </vType>
      <vType accel="0.770" id="vehDist93" maxSpeed="6.912" speedDev="0.000" speedFactor="4.000" vClass="bicycle">
         <param key="has.fcd.device" value="true"/>
      </vType>
      <vType accel="1.001" id="vehDist94" maxSpeed="8.037" speedDev="0.000" speedFactor="4.000" vClass="bicycle">
         <param key="has.fcd.device" value="true"/>
      </vType>
      <vType accel="0.789" id="vehDist95" maxSpeed="8.765" speedDev="0.000" speedFactor="4.000" vClass="bicycle">
         <param key="has.fcd.device" value="true"/>
      </vType>
      <vType accel="0.790" id="vehDist96" maxSpeed="5.798" speedDev="0.000" speedFactor="4.000" vClass="bicycle">
         <param key="has.fcd.device" value="true"/>
      </vType>
      <vType accel="0.933" id="vehDist97" maxSpeed="7.693" speedDev="0.000" speedFactor="4.000" vClass="bicycle">
         <param key="has.fcd.device" value="true"/>
      </vType>
      <vType accel="0.834" id="vehDist98" maxSpeed="8.288" speedDev="0.000" speedFactor="4.000" vClass="bicycle">
         <param key="has.fcd.device" value="true"/>
      </vType>
      <vType accel="0.934" id="vehDist99" maxSpeed="6.469" speedDev="0.000" speedFactor="4.000" vClass="bicycle">
         <param key="has.fcd.device" value="true"/>
      </vType>
   </vTypeDistribution>
</additional>
