<?xml version="1.0" encoding="UTF-8"?>

<!-- generated on Di 16 Mär 2021 11:44:21 CET by Eclipse SUMO netedit Version v1_7_0+1228-0b1a97d77e
<configuration xmlns:xsi="http://www.w3.org/2001/XMLSchema-instance" xsi:noNamespaceSchemaLocation="http://sumo.dlr.de/xsd/netconvertConfiguration.xsd">

    <output>
        <output-file value="/home/kons/GIT/sumo/traci_test/traci_dummy.net.xml"/>
        <output.street-names value="true"/>
    </output>

    <processing>
        <offset.disable-normalization value="true"/>
    </processing>

    <junctions>
        <no-turnarounds value="true"/>
    </junctions>

    <netedit>
        <route-files value="/home/kons/GIT/sumo/traci_test/asd.rou.xml"/>
    </netedit>

    <report>
        <aggregate-warnings value="5"/>
    </report>

</configuration>
-->

<routes xmlns:xsi="http://www.w3.org/2001/XMLSchema-instance" xsi:noNamespaceSchemaLocation="http://sumo.dlr.de/xsd/routes_file.xsd">


    <route edges="52578336#5 109612315#0 109612315#1 109612315#2 109612315#3 109612315#9" color="yellow" id="route_0"/>
    <route edges="32909782#4 32909782#10 32909782#11 109612319#0 109612319#1 109612319#2" color="yellow" id="route_1"/>
    <route edges="52578336#5 109612315#0 109612315#1 109612315#2 109612315#3 4490162#0 4490162#1 4490162#2 4490162#3 4490162#4 747453201 37036260#0 37036260#1" color="yellow" id="route_2"/>

    <flow id="flow_0" type="vehDist" begin="0.00" route="route_2" end="7200.00" number="180"/>
    <flow id="car_flow_1" begin="0.00" route="route_1" end="3600.00" number="200"/>
    <flow id="car_flow_2" begin="0.00" route="route_2" end="3600.00" number="200"/>
    
</routes>
