<?xml version="1.0" encoding="UTF-8"?>

<!-- generated on Fr 12 Mär 2021 14:53:39 CET by Eclipse SUMO netedit Version v1_7_0+1228-0b1a97d77e
<configuration xmlns:xsi="http://www.w3.org/2001/XMLSchema-instance" xsi:noNamespaceSchemaLocation="http://sumo.dlr.de/xsd/netconvertConfiguration.xsd">

    <input>
        <sumo-net-file value="CHB.net.xml"/>
    </input>

    <output>
        <output-file value="CHB.net.xml"/>
    </output>

    <processing>
        <geometry.min-radius.fix.railways value="false"/>
        <geometry.max-grade.fix value="false"/>
        <offset.disable-normalization value="true"/>
        <lefthand value="false"/>
    </processing>

    <junctions>
        <no-turnarounds value="true"/>
        <junctions.corner-detail value="5"/>
        <junctions.limit-turn-speed value="5.5"/>
        <rectangular-lane-cut value="false"/>
    </junctions>

    <pedestrian>
        <walkingareas value="false"/>
    </pedestrian>

    <netedit>
        <route-files value="/home/kons/GIT/sumo/parameterization_evaluation/CHB/CHB.rou.xml"/>
    </netedit>

    <report>
        <aggregate-warnings value="5"/>
    </report>

</configuration>
-->

<routes xmlns:xsi="http://www.w3.org/2001/XMLSchema-instance" xsi:noNamespaceSchemaLocation="http://sumo.dlr.de/xsd/routes_file.xsd">
    <route edges="-136814134#3 -659119234 41413736#2 41413736#3 41413736#4 41413736#5 41413736#6 41413736#7 25184342#2 25184342#3 25184342#4 25184342#5 25184342#6 25184342#7 25184342#8 25184342#9 25184342#10 25184342#11 25184342#12 166436748#0 166436748#1 160346478#2 160346478#3 461905066#0 461905066#1 4381554#0 4381554#1 4381554#2 4381554#3 4381554#4 4381554#5 4381554#6 4381554#7 37764670#0 37764670#1 37764670#2 37764670#3 37764670#4 37764670#5 37764670#6 37764670#7 4391568#2 4391568#3 751877383#0 751877383#1 751877383#2 751877383#3 751877382#0 751877382#1 751877382#2 751877382#3 751877382#4 8094229#3 8094229#4 454003207#0 454003207#1 454003207#2 454003207#3 4492013#2 4492013#3 4492013#4 4492013#5 4492013#6 4492013#7 41274617 4492007 814007276 4492009#0 4492009#1 98399629#0 98399629#1 840401536#1" color="yellow" id="route_0"/>
</routes>
