<configuration>
    <input>    
        <net-file value="mehringdamm.net.xml"/>
        <route-files value="mehringdamm_stripped.trips.xml"/>
        <additional-files value="../../../parameterization_impl/vTypeDistributions_new_params_slow.add.xml"/>
    </input>
    <time>
        <begin value="0"/>
        <end value="8000"/>
    </time>
    <tls.actuated.show-detectors value="true"/>
</configuration>
