<?xml version="1.0" encoding="UTF-8"?>

<!-- generated on Mi 02 Jun 2021 10:11:46 CEST by Eclipse SUMO netedit Version v1_7_0+1228-0b1a97d77e
<configuration xmlns:xsi="http://www.w3.org/2001/XMLSchema-instance" xsi:noNamespaceSchemaLocation="http://sumo.dlr.de/xsd/netconvertConfiguration.xsd">

    <input>
        <sumo-net-file value="/home/kons/GIT/sumo/warschauer_traci/osm.net.xml"/>
    </input>

    <output>
        <output-file value="/home/kons/GIT/sumo/warschauer_traci/osm.net.xml"/>
        <output.street-names value="true"/>
    </output>

    <processing>
        <geometry.min-radius.fix.railways value="false"/>
        <geometry.max-grade.fix value="false"/>
        <offset.disable-normalization value="true"/>
        <lefthand value="false"/>
    </processing>

    <junctions>
        <no-turnarounds value="true"/>
        <junctions.corner-detail value="5"/>
        <junctions.limit-turn-speed value="5.5"/>
        <rectangular-lane-cut value="false"/>
    </junctions>

    <pedestrian>
        <walkingareas value="false"/>
    </pedestrian>

    <netedit>
        <route-files value="/home/kons/GIT/sumo/warschauer_traci/routes.rou.xml"/>
    </netedit>

    <report>
        <aggregate-warnings value="5"/>
    </report>

</configuration>
-->

<net version="1.6" junctionCornerDetail="5" limitTurnSpeed="5.50" xmlns:xsi="http://www.w3.org/2001/XMLSchema-instance" xsi:noNamespaceSchemaLocation="http://sumo.dlr.de/xsd/net_file.xsd">

    <location netOffset="-393427.31,-5818437.97" convBoundary="769.17,0.00,2751.33,1254.71" origBoundary="13.429342,52.506169,13.496897,52.521479" projParameter="+proj=utm +zone=33 +ellps=WGS84 +datum=WGS84 +units=m +no_defs"/>

    <type id="highway.bridleway" priority="1" numLanes="1" speed="2.78" allow="pedestrian" oneway="1" width="2.00"/>
    <type id="highway.bus_guideway" priority="1" numLanes="1" speed="27.78" allow="bus" oneway="1"/>
    <type id="highway.cycleway" priority="1" numLanes="1" speed="8.33" allow="bicycle" oneway="0" width="1.00"/>
    <type id="highway.footway" priority="1" numLanes="1" speed="2.78" allow="pedestrian" oneway="1" width="2.00"/>
    <type id="highway.ford" priority="1" numLanes="1" speed="2.78" allow="army" oneway="0"/>
    <type id="highway.living_street" priority="2" numLanes="1" speed="2.78" disallow="tram rail_urban rail rail_electric rail_fast ship" oneway="0"/>
    <type id="highway.motorway" priority="14" numLanes="2" speed="39.44" allow="private emergency authority army vip passenger hov taxi bus coach delivery truck trailer motorcycle evehicle custom1 custom2" oneway="1"/>
    <type id="highway.motorway_link" priority="9" numLanes="1" speed="22.22" allow="private emergency authority army vip passenger hov taxi bus coach delivery truck trailer motorcycle evehicle custom1 custom2" oneway="1"/>
    <type id="highway.path" priority="1" numLanes="1" speed="2.78" allow="pedestrian bicycle" oneway="0" width="2.00"/>
    <type id="highway.pedestrian" priority="1" numLanes="1" speed="2.78" allow="pedestrian" oneway="1" width="2.00"/>
    <type id="highway.primary" priority="12" numLanes="2" speed="27.78" disallow="tram rail_urban rail rail_electric rail_fast ship" oneway="0"/>
    <type id="highway.primary_link" priority="7" numLanes="1" speed="22.22" disallow="tram rail_urban rail rail_electric rail_fast ship" oneway="0"/>
    <type id="highway.raceway" priority="15" numLanes="2" speed="83.33" allow="vip" oneway="0"/>
    <type id="highway.residential" priority="3" numLanes="1" speed="13.89" disallow="tram rail_urban rail rail_electric rail_fast ship" oneway="0"/>
    <type id="highway.secondary" priority="11" numLanes="1" speed="27.78" disallow="tram rail_urban rail rail_electric rail_fast ship" oneway="0"/>
    <type id="highway.secondary_link" priority="6" numLanes="1" speed="22.22" disallow="tram rail_urban rail rail_electric rail_fast ship" oneway="0"/>
    <type id="highway.service" priority="1" numLanes="1" speed="5.56" allow="pedestrian delivery bicycle" oneway="0"/>
    <type id="highway.stairs" priority="1" numLanes="1" speed="1.39" allow="pedestrian" oneway="1" width="2.00"/>
    <type id="highway.step" priority="1" numLanes="1" speed="1.39" allow="pedestrian" oneway="1" width="2.00"/>
    <type id="highway.steps" priority="1" numLanes="1" speed="1.39" allow="pedestrian" oneway="1" width="2.00"/>
    <type id="highway.tertiary" priority="10" numLanes="1" speed="22.22" disallow="tram rail_urban rail rail_electric rail_fast ship" oneway="0"/>
    <type id="highway.tertiary_link" priority="5" numLanes="1" speed="22.22" disallow="tram rail_urban rail rail_electric rail_fast ship" oneway="0"/>
    <type id="highway.track" priority="1" numLanes="1" speed="5.56" allow="pedestrian motorcycle moped bicycle" oneway="0"/>
    <type id="highway.trunk" priority="13" numLanes="2" speed="27.78" disallow="pedestrian bicycle tram rail_urban rail rail_electric rail_fast ship" oneway="0"/>
    <type id="highway.trunk_link" priority="8" numLanes="1" speed="22.22" disallow="pedestrian bicycle tram rail_urban rail rail_electric rail_fast ship" oneway="0"/>
    <type id="highway.unclassified" priority="4" numLanes="1" speed="13.89" disallow="tram rail_urban rail rail_electric rail_fast ship" oneway="0"/>
    <type id="highway.unsurfaced" priority="1" numLanes="1" speed="8.33" disallow="tram rail_urban rail rail_electric rail_fast ship" oneway="0"/>
    <type id="railway.highspeed" priority="21" numLanes="1" speed="69.44" allow="rail_fast" oneway="1"/>
    <type id="railway.light_rail" priority="19" numLanes="1" speed="27.78" allow="rail_urban" oneway="1"/>
    <type id="railway.preserved" priority="16" numLanes="1" speed="27.78" allow="rail" oneway="1"/>
    <type id="railway.rail" priority="20" numLanes="1" speed="44.44" allow="rail" oneway="1"/>
    <type id="railway.subway" priority="18" numLanes="1" speed="27.78" allow="rail_urban" oneway="1"/>
    <type id="railway.tram" priority="17" numLanes="1" speed="13.89" allow="tram" oneway="1"/>

    <edge id=":1011319221_0" function="internal">
        <lane id=":1011319221_0_0" index="0" allow="bicycle" speed="13.89" length="0.30" width="1.00" shape="1596.94,910.96 1596.84,910.65"/>
        <lane id=":1011319221_0_1" index="1" disallow="bicycle tram rail_urban rail rail_electric rail_fast ship" speed="13.89" length="0.30" shape="1598.95,910.35 1598.85,910.06"/>
        <lane id=":1011319221_0_2" index="2" disallow="bicycle tram rail_urban rail rail_electric rail_fast ship" speed="13.89" length="0.30" shape="1602.01,909.41 1601.92,909.15"/>
    </edge>
    <edge id=":1011319238_0" function="internal">
        <lane id=":1011319238_0_0" index="0" allow="bicycle" speed="13.89" length="0.90" width="1.00" shape="1570.44,727.23 1571.30,727.00"/>
        <lane id=":1011319238_0_1" index="1" disallow="bicycle tram rail_urban rail rail_electric rail_fast ship" speed="13.89" length="0.90" shape="1569.89,725.21 1570.77,724.97"/>
    </edge>
    <edge id=":1011319238_2" function="internal">
        <lane id=":1011319238_2_0" index="0" disallow="bicycle tram rail_urban rail rail_electric rail_fast ship" speed="3.65" length="2.34" shape="1569.89,725.21 1568.52,724.75 1567.92,724.08"/>
    </edge>
    <edge id=":1011319238_6" function="internal">
        <lane id=":1011319238_6_0" index="0" disallow="bicycle tram rail_urban rail rail_electric rail_fast ship" speed="3.65" length="2.34" shape="1567.92,724.08 1568.10,723.20 1569.05,722.12"/>
    </edge>
    <edge id=":1011319238_3" function="internal">
        <lane id=":1011319238_3_0" index="0" allow="bicycle" speed="13.89" length="0.96" width="1.00" shape="1569.44,719.84 1568.50,720.09"/>
        <lane id=":1011319238_3_1" index="1" disallow="bicycle tram rail_urban rail rail_electric rail_fast ship" speed="13.89" length="0.96" shape="1569.97,721.87 1569.05,722.12"/>
    </edge>
    <edge id=":1011319238_5" function="internal">
        <lane id=":1011319238_5_0" index="0" disallow="bicycle tram rail_urban rail rail_electric rail_fast ship" speed="3.65" length="2.34" shape="1569.97,721.87 1571.33,722.34 1571.92,723.02"/>
    </edge>
    <edge id=":1011319238_7" function="internal">
        <lane id=":1011319238_7_0" index="0" disallow="bicycle tram rail_urban rail rail_electric rail_fast ship" speed="3.65" length="2.34" shape="1571.92,723.02 1571.73,723.89 1570.77,724.97"/>
    </edge>
    <edge id=":1011319281_0" function="internal">
        <lane id=":1011319281_0_0" index="0" allow="bicycle" speed="13.89" length="0.31" width="1.00" shape="1555.29,731.19 1554.99,731.27"/>
        <lane id=":1011319281_0_1" index="1" disallow="bicycle tram rail_urban rail rail_electric rail_fast ship" speed="13.89" length="0.31" shape="1554.75,729.16 1554.46,729.24"/>
    </edge>
    <edge id=":1011319281_2" function="internal">
        <lane id=":1011319281_2_0" index="0" disallow="bicycle tram rail_urban rail rail_electric rail_fast ship" speed="3.65" length="2.34" shape="1554.75,729.16 1553.39,728.69 1552.80,728.02"/>
    </edge>
    <edge id=":1011319281_6" function="internal">
        <lane id=":1011319281_6_0" index="0" disallow="bicycle tram rail_urban rail rail_electric rail_fast ship" speed="3.65" length="2.34" shape="1552.80,728.02 1552.98,727.15 1553.94,726.06"/>
    </edge>
    <edge id=":1011319281_3" function="internal">
        <lane id=":1011319281_3_0" index="0" allow="bicycle" speed="13.89" length="0.29" width="1.00" shape="1553.12,724.11 1553.40,724.03"/>
        <lane id=":1011319281_3_1" index="1" disallow="bicycle tram rail_urban rail rail_electric rail_fast ship" speed="13.89" length="0.29" shape="1553.65,726.14 1553.94,726.06"/>
    </edge>
    <edge id=":1011319281_5" function="internal">
        <lane id=":1011319281_5_0" index="0" disallow="bicycle tram rail_urban rail rail_electric rail_fast ship" speed="3.65" length="2.34" shape="1553.65,726.14 1555.01,726.61 1555.60,727.28"/>
    </edge>
    <edge id=":1011319281_7" function="internal">
        <lane id=":1011319281_7_0" index="0" disallow="bicycle tram rail_urban rail rail_electric rail_fast ship" speed="3.65" length="2.34" shape="1555.60,727.28 1555.42,728.16 1554.46,729.24"/>
    </edge>
    <edge id=":1390647516_0" function="internal">
        <lane id=":1390647516_0_0" index="0" allow="bicycle" speed="13.89" length="5.03" width="1.00" shape="1856.72,1045.22 1861.68,1044.26"/>
        <lane id=":1390647516_0_1" index="1" disallow="bicycle tram rail_urban rail rail_electric rail_fast ship" speed="13.89" length="5.03" shape="1857.13,1047.29 1862.07,1046.32"/>
        <lane id=":1390647516_0_2" index="2" disallow="bicycle tram rail_urban rail rail_electric rail_fast ship" speed="13.89" length="5.03" shape="1857.74,1050.43 1862.67,1049.46"/>
        <lane id=":1390647516_0_3" index="3" disallow="bicycle tram rail_urban rail rail_electric rail_fast ship" speed="13.89" length="5.03" shape="1858.36,1053.57 1863.28,1052.60"/>
    </edge>
    <edge id=":1390647522_0" function="internal">
        <lane id=":1390647522_0_0" index="0" allow="bicycle" speed="13.89" length="5.00" width="1.00" shape="1866.65,1070.80 1861.74,1071.72"/>
        <lane id=":1390647522_0_1" index="1" disallow="bicycle tram rail_urban rail rail_electric rail_fast ship" speed="13.89" length="5.00" shape="1866.26,1068.74 1861.35,1069.66"/>
        <lane id=":1390647522_0_2" index="2" disallow="bicycle tram rail_urban rail rail_electric rail_fast ship" speed="13.89" length="5.00" shape="1865.67,1065.59 1860.76,1066.51"/>
        <lane id=":1390647522_0_3" index="3" disallow="bicycle tram rail_urban rail rail_electric rail_fast ship" speed="13.89" length="5.00" shape="1865.08,1062.45 1860.17,1063.37"/>
    </edge>
    <edge id=":1408373503_0" function="internal">
        <lane id=":1408373503_0_0" index="0" allow="bicycle" speed="4.92" length="5.61" width="1.00" shape="1582.57,724.03 1581.14,724.63 1580.27,725.53 1579.95,726.75 1580.18,728.28"/>
    </edge>
    <edge id=":1408373503_1" function="internal">
        <lane id=":1408373503_1_0" index="0" allow="bicycle" speed="11.11" length="12.35" width="1.00" shape="1582.57,724.03 1570.63,727.18"/>
    </edge>
    <edge id=":1408373503_2" function="internal">
        <lane id=":1408373503_2_0" index="0" disallow="bicycle tram rail_urban rail rail_electric rail_fast ship" speed="6.44" length="9.10" shape="1582.04,722.00 1579.73,722.96 1578.31,724.44 1577.79,726.41 1578.17,728.89"/>
    </edge>
    <edge id=":1408373503_3" function="internal">
        <lane id=":1408373503_3_0" index="0" disallow="bicycle tram rail_urban rail rail_electric rail_fast ship" speed="11.11" length="12.37" shape="1582.04,722.00 1570.08,725.15"/>
    </edge>
    <edge id=":1408373503_4" function="internal">
        <lane id=":1408373503_4_0" index="0" disallow="bicycle tram rail_urban rail rail_electric rail_fast ship" speed="3.65" length="4.67" shape="1582.04,722.00 1580.68,721.52 1580.09,720.85 1580.28,719.97 1581.24,718.90"/>
    </edge>
    <edge id=":1408373503_5" function="internal">
        <lane id=":1408373503_5_0" index="0" allow="bicycle" speed="5.17" length="5.95" width="1.00" shape="1576.12,714.35 1576.77,715.80 1577.75,716.71 1579.06,717.06 1580.71,716.87"/>
    </edge>
    <edge id=":1408373503_6" function="internal">
        <lane id=":1408373503_6_0" index="0" allow="bicycle" speed="13.89" length="14.52" width="1.00" shape="1576.12,714.35 1580.18,728.28"/>
    </edge>
    <edge id=":1408373503_7" function="internal">
        <lane id=":1408373503_7_0" index="0" allow="bicycle" speed="8.23" length="15.89" width="1.00" shape="1576.12,714.35 1576.88,719.10 1576.22,722.83 1574.14,725.52 1570.63,727.18"/>
    </edge>
    <edge id=":1408373503_8" function="internal">
        <lane id=":1408373503_8_0" index="0" disallow="bicycle tram rail_urban rail rail_electric rail_fast ship" speed="6.63" length="4.01" shape="1574.09,714.91 1575.11,717.20 1576.21,718.23"/>
    </edge>
    <edge id=":1408373503_9" function="internal">
        <lane id=":1408373503_9_0" index="0" disallow="bicycle tram rail_urban rail rail_electric rail_fast ship" speed="13.89" length="14.60" shape="1574.09,714.91 1578.17,728.89"/>
        <lane id=":1408373503_9_1" index="1" disallow="bicycle tram rail_urban rail rail_electric rail_fast ship" speed="13.89" length="14.60" shape="1571.01,715.77 1575.11,729.82"/>
    </edge>
    <edge id=":1408373503_11" function="internal">
        <lane id=":1408373503_11_0" index="0" disallow="bicycle tram rail_urban rail rail_electric rail_fast ship" speed="6.87" length="10.23" shape="1571.01,715.77 1571.84,719.54 1571.96,722.36 1571.38,724.23 1570.08,725.15"/>
    </edge>
    <edge id=":1408373503_17" function="internal">
        <lane id=":1408373503_17_0" index="0" disallow="bicycle tram rail_urban rail rail_electric rail_fast ship" speed="6.63" length="5.28" shape="1576.21,718.23 1576.64,718.63 1578.68,719.20 1581.24,718.90"/>
    </edge>
    <edge id=":1408373503_12" function="internal">
        <lane id=":1408373503_12_0" index="0" allow="bicycle" speed="11.11" length="12.42" width="1.00" shape="1568.70,720.04 1580.71,716.87"/>
    </edge>
    <edge id=":1408373503_13" function="internal">
        <lane id=":1408373503_13_0" index="0" allow="bicycle" speed="8.37" length="15.95" width="1.00" shape="1568.70,720.04 1572.53,719.71 1575.72,720.98 1578.27,723.83 1580.18,728.28"/>
    </edge>
    <edge id=":1408373503_14" function="internal">
        <lane id=":1408373503_14_0" index="0" disallow="bicycle tram rail_urban rail rail_electric rail_fast ship" speed="11.11" length="12.40" shape="1569.24,722.06 1581.24,718.90"/>
    </edge>
    <edge id=":1408373503_15" function="internal">
        <lane id=":1408373503_15_0" index="0" disallow="bicycle tram rail_urban rail rail_electric rail_fast ship" speed="7.03" length="10.48" shape="1569.24,722.06 1570.83,722.22 1572.33,723.56 1573.76,726.10 1575.11,729.82"/>
    </edge>
    <edge id=":1408373503_16" function="internal">
        <lane id=":1408373503_16_0" index="0" disallow="bicycle tram rail_urban rail rail_electric rail_fast ship" speed="3.65" length="4.67" shape="1569.24,722.06 1570.61,722.52 1571.21,723.19 1571.03,724.07 1570.08,725.15"/>
    </edge>
    <edge id=":1503705770_0" function="internal">
        <lane id=":1503705770_0_0" index="0" allow="bicycle" speed="13.89" length="0.30" width="1.00" shape="1056.11,1223.03 1055.80,1223.08"/>
        <lane id=":1503705770_0_1" index="1" disallow="bicycle tram rail_urban rail rail_electric rail_fast ship" speed="13.89" length="0.30" shape="1055.73,1220.96 1055.43,1221.01"/>
        <lane id=":1503705770_0_2" index="2" disallow="bicycle tram rail_urban rail rail_electric rail_fast ship" speed="13.89" length="0.30" shape="1055.15,1217.81 1054.86,1217.86"/>
        <lane id=":1503705770_0_3" index="3" disallow="bicycle tram rail_urban rail rail_electric rail_fast ship" speed="13.89" length="0.30" shape="1054.58,1214.66 1054.29,1214.71"/>
    </edge>
    <edge id=":1503708137_0" function="internal">
        <lane id=":1503708137_0_0" index="0" allow="bicycle" speed="13.89" length="0.29" width="1.00" shape="1223.31,1191.50 1223.05,1191.55"/>
        <lane id=":1503708137_0_1" index="1" disallow="bicycle tram rail_urban rail rail_electric rail_fast ship" speed="13.89" length="0.29" shape="1222.92,1189.44 1222.65,1189.49"/>
        <lane id=":1503708137_0_2" index="2" disallow="bicycle tram rail_urban rail rail_electric rail_fast ship" speed="13.89" length="0.29" shape="1222.33,1186.29 1222.03,1186.35"/>
        <lane id=":1503708137_0_3" index="3" disallow="bicycle tram rail_urban rail rail_electric rail_fast ship" speed="13.89" length="0.29" shape="1221.74,1183.15 1221.42,1183.21"/>
    </edge>
    <edge id=":1822635086_0" function="internal">
        <lane id=":1822635086_0_0" index="0" allow="bicycle" speed="5.20" length="6.00" width="1.00" shape="1545.71,737.51 1545.03,736.02 1544.04,735.10 1542.72,734.73 1541.09,734.93"/>
    </edge>
    <edge id=":1822635086_1" function="internal">
        <lane id=":1822635086_1_0" index="0" allow="bicycle" speed="13.89" length="14.59" width="1.00" shape="1545.71,737.51 1541.60,723.50"/>
    </edge>
    <edge id=":1822635086_2" function="internal">
        <lane id=":1822635086_2_0" index="0" allow="bicycle" speed="8.44" length="16.97" width="1.00" shape="1545.71,737.51 1544.97,732.69 1545.83,728.88 1548.31,726.09 1552.39,724.30"/>
    </edge>
    <edge id=":1822635086_3" function="internal">
        <lane id=":1822635086_3_0" index="0" disallow="bicycle tram rail_urban rail rail_electric rail_fast ship" speed="6.66" length="4.00" shape="1547.72,736.92 1546.68,734.61 1545.61,733.61"/>
    </edge>
    <edge id=":1822635086_4" function="internal">
        <lane id=":1822635086_4_0" index="0" disallow="bicycle tram rail_urban rail rail_electric rail_fast ship" speed="13.89" length="14.61" shape="1547.72,736.92 1543.62,722.91"/>
        <lane id=":1822635086_4_1" index="1" disallow="bicycle tram rail_urban rail rail_electric rail_fast ship" speed="13.89" length="14.61" shape="1550.80,736.03 1546.68,722.00"/>
    </edge>
    <edge id=":1822635086_6" function="internal">
        <lane id=":1822635086_6_0" index="0" disallow="bicycle tram rail_urban rail rail_electric rail_fast ship" speed="7.08" length="11.09" shape="1550.80,736.03 1550.01,732.24 1550.10,729.36 1551.07,727.39 1552.93,726.33"/>
    </edge>
    <edge id=":1822635086_17" function="internal">
        <lane id=":1822635086_17_0" index="0" disallow="bicycle tram rail_urban rail rail_electric rail_fast ship" speed="6.66" length="5.32" shape="1545.61,733.61 1545.13,733.17 1543.09,732.60 1540.55,732.90"/>
    </edge>
    <edge id=":1822635086_7" function="internal">
        <lane id=":1822635086_7_0" index="0" allow="bicycle" speed="13.89" length="13.63" width="1.00" shape="1554.27,731.46 1541.09,734.93"/>
    </edge>
    <edge id=":1822635086_8" function="internal">
        <lane id=":1822635086_8_0" index="0" allow="bicycle" speed="8.62" length="16.93" width="1.00" shape="1554.27,731.46 1549.89,731.90 1546.32,730.73 1543.55,727.93 1541.60,723.50"/>
    </edge>
    <edge id=":1822635086_9" function="internal">
        <lane id=":1822635086_9_0" index="0" disallow="bicycle tram rail_urban rail rail_electric rail_fast ship" speed="13.89" length="13.64" shape="1553.74,729.43 1540.55,732.90"/>
    </edge>
    <edge id=":1822635086_10" function="internal">
        <lane id=":1822635086_10_0" index="0" disallow="bicycle tram rail_urban rail rail_electric rail_fast ship" speed="7.28" length="11.30" shape="1553.74,729.43 1551.61,729.41 1549.72,728.16 1548.08,725.69 1546.68,722.00"/>
    </edge>
    <edge id=":1822635086_11" function="internal">
        <lane id=":1822635086_11_0" index="0" disallow="bicycle tram rail_urban rail rail_electric rail_fast ship" speed="3.65" length="4.67" shape="1553.74,729.43 1552.37,728.96 1551.78,728.28 1551.97,727.41 1552.93,726.33"/>
    </edge>
    <edge id=":1822635086_12" function="internal">
        <lane id=":1822635086_12_0" index="0" allow="bicycle" speed="4.95" length="5.62" width="1.00" shape="1539.20,727.77 1540.62,727.17 1541.50,726.26 1541.83,725.03 1541.60,723.50"/>
    </edge>
    <edge id=":1822635086_13" function="internal">
        <lane id=":1822635086_13_0" index="0" allow="bicycle" speed="13.89" length="13.64" width="1.00" shape="1539.20,727.77 1552.39,724.30"/>
    </edge>
    <edge id=":1822635086_14" function="internal">
        <lane id=":1822635086_14_0" index="0" disallow="bicycle tram rail_urban rail rail_electric rail_fast ship" speed="6.46" length="9.08" shape="1539.74,729.80 1542.04,728.83 1543.45,727.35 1543.98,725.38 1543.62,722.91"/>
    </edge>
    <edge id=":1822635086_15" function="internal">
        <lane id=":1822635086_15_0" index="0" disallow="bicycle tram rail_urban rail rail_electric rail_fast ship" speed="13.89" length="13.64" shape="1539.74,729.80 1552.93,726.33"/>
    </edge>
    <edge id=":1822635086_16" function="internal">
        <lane id=":1822635086_16_0" index="0" disallow="bicycle tram rail_urban rail rail_electric rail_fast ship" speed="3.65" length="4.67" shape="1539.74,729.80 1541.10,730.27 1541.69,730.94 1541.51,731.82 1540.55,732.90"/>
    </edge>
    <edge id=":1822635098_0" function="internal">
        <lane id=":1822635098_0_0" index="0" allow="bicycle" speed="13.89" length="0.30" width="1.00" shape="1547.83,744.80 1547.74,744.50"/>
        <lane id=":1822635098_0_1" index="1" disallow="bicycle tram rail_urban rail rail_electric rail_fast ship" speed="13.89" length="0.30" shape="1549.84,744.21 1549.75,743.91"/>
        <lane id=":1822635098_0_2" index="2" disallow="bicycle tram rail_urban rail rail_electric rail_fast ship" speed="13.89" length="0.30" shape="1552.91,743.29 1552.83,743.02"/>
    </edge>
    <edge id=":1855199088_0" function="internal">
        <lane id=":1855199088_0_0" index="0" allow="bicycle" speed="13.89" length="0.10" width="1.00" shape="1419.65,1154.74 1419.65,1154.74"/>
        <lane id=":1855199088_0_1" index="1" disallow="bicycle tram rail_urban rail rail_electric rail_fast ship" speed="13.89" length="0.10" shape="1419.26,1152.67 1419.26,1152.67"/>
        <lane id=":1855199088_0_2" index="2" disallow="bicycle tram rail_urban rail rail_electric rail_fast ship" speed="13.89" length="0.10" shape="1418.67,1149.53 1418.67,1149.53"/>
        <lane id=":1855199088_0_3" index="3" disallow="bicycle tram rail_urban rail rail_electric rail_fast ship" speed="13.89" length="0.10" shape="1418.08,1146.38 1418.08,1146.38"/>
    </edge>
    <edge id=":2518404060_0" function="internal">
        <lane id=":2518404060_0_0" index="0" allow="bicycle" speed="13.89" length="0.30" width="1.00" shape="1644.32,939.82 1644.41,940.11"/>
        <lane id=":2518404060_0_1" index="1" disallow="bicycle tram rail_urban rail rail_electric rail_fast ship" speed="13.89" length="0.30" shape="1642.31,940.43 1642.40,940.71"/>
        <lane id=":2518404060_0_2" index="2" disallow="bicycle tram rail_urban rail rail_electric rail_fast ship" speed="13.89" length="0.30" shape="1639.25,941.35 1639.33,941.64"/>
    </edge>
    <edge id=":2670269989_0" function="internal">
        <lane id=":2670269989_0_0" index="0" allow="bicycle" speed="13.89" length="0.30" width="1.00" shape="1666.65,1191.51 1666.59,1191.84"/>
        <lane id=":2670269989_0_1" index="1" disallow="bicycle tram rail_urban rail rail_electric rail_fast ship" speed="13.89" length="0.30" shape="1664.59,1191.12 1664.53,1191.42"/>
        <lane id=":2670269989_0_2" index="2" disallow="bicycle tram rail_urban rail rail_electric rail_fast ship" speed="13.89" length="0.30" shape="1661.44,1190.52 1661.39,1190.78"/>
    </edge>
    <edge id=":2670269990_0" function="internal">
        <lane id=":2670269990_0_0" index="0" allow="bicycle" speed="13.89" length="0.29" width="1.00" shape="1675.10,1146.66 1675.05,1146.93"/>
        <lane id=":2670269990_0_1" index="1" disallow="bicycle tram rail_urban rail rail_electric rail_fast ship" speed="13.89" length="0.29" shape="1673.04,1146.26 1672.98,1146.54"/>
        <lane id=":2670269990_0_2" index="2" disallow="bicycle tram rail_urban rail rail_electric rail_fast ship" speed="13.89" length="0.29" shape="1669.90,1145.65 1669.84,1145.95"/>
    </edge>
    <edge id=":267492915_0" function="internal">
        <lane id=":267492915_0_0" index="0" allow="bicycle" speed="13.89" length="0.28" width="1.00" shape="1051.20,1197.65 1051.39,1197.61"/>
        <lane id=":267492915_0_1" index="1" disallow="bicycle tram rail_urban rail rail_electric rail_fast ship" speed="13.89" length="0.28" shape="1051.58,1199.71 1051.81,1199.66"/>
        <lane id=":267492915_0_2" index="2" disallow="bicycle tram rail_urban rail rail_electric rail_fast ship" speed="13.89" length="0.28" shape="1052.15,1202.86 1052.45,1202.80"/>
        <lane id=":267492915_0_3" index="3" disallow="bicycle tram rail_urban rail rail_electric rail_fast ship" speed="13.89" length="0.28" shape="1052.73,1206.01 1053.09,1205.94"/>
    </edge>
    <edge id=":28151270_0" function="internal">
        <lane id=":28151270_0_0" index="0" disallow="bicycle tram rail_urban rail rail_electric rail_fast ship" speed="3.65" length="4.67" shape="1863.52,633.83 1864.89,634.25 1865.50,634.91 1865.35,635.79 1864.42,636.89"/>
    </edge>
    <edge id=":282771047_0" function="internal">
        <lane id=":282771047_0_0" index="0" allow="bicycle" speed="13.89" length="8.21" width="1.00" shape="1635.42,1153.88 1635.68,1151.49 1635.49,1149.81 1635.29,1148.13 1635.55,1145.73"/>
        <lane id=":282771047_0_1" index="1" disallow="bicycle tram rail_urban rail rail_electric rail_fast ship" speed="13.89" length="8.21" shape="1637.47,1154.33 1637.74,1151.93 1637.54,1150.25 1637.34,1148.57 1637.60,1146.17"/>
        <lane id=":282771047_0_2" index="2" disallow="bicycle tram rail_urban rail rail_electric rail_fast ship" speed="13.89" length="8.21" shape="1640.60,1155.01 1640.87,1152.61 1640.67,1150.93 1640.47,1149.24 1640.73,1146.85"/>
        <lane id=":282771047_0_3" index="3" disallow="bicycle tram rail_urban rail rail_electric rail_fast ship" speed="13.89" length="8.21" shape="1643.73,1155.68 1643.99,1153.29 1643.79,1151.60 1643.59,1149.92 1643.86,1147.52"/>
        <lane id=":282771047_0_4" index="4" disallow="bicycle tram rail_urban rail rail_electric rail_fast ship" speed="13.89" length="8.21" shape="1643.73,1155.68 1644.48,1153.39 1645.36,1151.94 1646.23,1150.49 1646.98,1148.20"/>
    </edge>
    <edge id=":2845478621_0" function="internal">
        <lane id=":2845478621_0_0" index="0" allow="bicycle" speed="13.89" length="5.10" width="1.00" shape="1625.14,1204.44 1626.17,1199.47"/>
        <lane id=":2845478621_0_1" index="1" disallow="bicycle tram rail_urban rail rail_electric rail_fast ship" speed="13.89" length="5.10" shape="1627.20,1204.87 1628.23,1199.88"/>
        <lane id=":2845478621_0_2" index="2" disallow="bicycle tram rail_urban rail rail_electric rail_fast ship" speed="13.89" length="5.10" shape="1630.33,1205.52 1631.37,1200.52"/>
        <lane id=":2845478621_0_3" index="3" disallow="bicycle tram rail_urban rail rail_electric rail_fast ship" speed="13.89" length="5.10" shape="1633.46,1206.18 1634.50,1201.15"/>
    </edge>
    <edge id=":2845478642_0" function="internal">
        <lane id=":2845478642_0_0" index="0" allow="bicycle" speed="13.89" length="8.19" width="1.00" shape="1668.96,1021.08 1669.90,1023.33 1670.88,1024.72 1671.85,1026.12 1672.74,1028.38"/>
        <lane id=":2845478642_0_1" index="1" disallow="bicycle tram rail_urban rail rail_electric rail_fast ship" speed="13.89" length="8.19" shape="1666.95,1021.69 1667.88,1023.92 1668.87,1025.31 1669.83,1026.70 1670.72,1028.94"/>
        <lane id=":2845478642_0_2" index="2" disallow="bicycle tram rail_urban rail rail_electric rail_fast ship" speed="13.89" length="8.19" shape="1663.89,1022.62 1664.81,1024.83 1665.79,1026.20 1666.76,1027.58 1667.63,1029.80"/>
        <lane id=":2845478642_0_3" index="3" disallow="bicycle tram rail_urban rail rail_electric rail_fast ship" speed="13.89" length="8.19" shape="1663.89,1022.62 1664.33,1024.96 1664.25,1026.63 1664.16,1028.30 1664.55,1030.66"/>
    </edge>
    <edge id=":2992788266_0" function="internal">
        <lane id=":2992788266_0_0" index="0" allow="bicycle" speed="13.89" length="0.30" width="1.00" shape="1469.29,1118.62 1469.62,1118.56"/>
        <lane id=":2992788266_0_1" index="1" disallow="bicycle tram rail_urban rail rail_electric rail_fast ship" speed="13.89" length="0.30" shape="1469.70,1120.68 1470.02,1120.62"/>
        <lane id=":2992788266_0_2" index="2" disallow="bicycle tram rail_urban rail rail_electric rail_fast ship" speed="13.89" length="0.30" shape="1470.33,1123.82 1470.61,1123.76"/>
        <lane id=":2992788266_0_3" index="3" disallow="bicycle tram rail_urban rail rail_electric rail_fast ship" speed="13.89" length="0.30" shape="1470.95,1126.96 1471.21,1126.91"/>
    </edge>