<?xml version="1.0" encoding="UTF-8"?>

<!-- generated on Mi 02 Jun 2021 10:00:18 CEST by Eclipse SUMO netedit Version v1_7_0+1228-0b1a97d77e
<configuration xmlns:xsi="http://www.w3.org/2001/XMLSchema-instance" xsi:noNamespaceSchemaLocation="http://sumo.dlr.de/xsd/netconvertConfiguration.xsd">

    <input>
        <sumo-net-file value="/home/kons/GIT/sumo/warschauer_traci/osm.net.xml"/>
    </input>

    <output>
        <output-file value="/home/kons/GIT/sumo/warschauer_traci/osm.net.xml"/>
        <output.street-names value="true"/>
    </output>

    <processing>
        <geometry.min-radius.fix.railways value="false"/>
        <geometry.max-grade.fix value="false"/>
        <offset.disable-normalization value="true"/>
        <lefthand value="false"/>
    </processing>

    <junctions>
        <no-turnarounds value="true"/>
        <junctions.corner-detail value="5"/>
        <junctions.limit-turn-speed value="5.5"/>
        <rectangular-lane-cut value="false"/>
    </junctions>

    <pedestrian>
        <walkingareas value="false"/>
    </pedestrian>

    <netedit>
        <route-files value="/home/kons/GIT/sumo/warschauer_traci/routes.rou.xml"/>
    </netedit>

    <report>
        <aggregate-warnings value="5"/>
    </report>

</configuration>
-->

<routes xmlns:xsi="http://www.w3.org/2001/XMLSchema-instance" xsi:noNamespaceSchemaLocation="http://sumo.dlr.de/xsd/routes_file.xsd">
    <route edges="37287191#1 37287191#6 37287191#7 37287191#8 440061671#0 4782480#1 4782480#2 4782480#3 4782480#4 4782480#5 4782480#6 4782480#7 4782480#8" color="yellow" id="route_0"/>
</routes>
