<?xml version="1.0" encoding="UTF-8"?>

<!-- generated on Mon Mar 15 10:25:17 2021 by Eclipse SUMO netconvert Version v1_7_0+1228-0b1a97d77e
<configuration xmlns:xsi="http://www.w3.org/2001/XMLSchema-instance" xsi:noNamespaceSchemaLocation="http://sumo.dlr.de/xsd/netconvertConfiguration.xsd">

    <input>
        <osm-files value="Moabit_default/moabit.osm.xml"/>
    </input>

    <output>
        <output-file value="osm.net.xml"/>
    </output>

    <projection>
        <proj.utm value="true"/>
    </projection>

    <bicycle>
        <bikelanes.guess value="true"/>
    </bicycle>

    <report>
        <aggregate-warnings value="5"/>
    </report>

</configuration>
-->

<net version="1.6" junctionCornerDetail="5" limitTurnSpeed="5.50" xmlns:xsi="http://www.w3.org/2001/XMLSchema-instance" xsi:noNamespaceSchemaLocation="http://sumo.dlr.de/xsd/net_file.xsd">

    <location netOffset="-386362.07,-5820615.58" convBoundary="0.00,0.00,1123.44,1116.82" origBoundary="13.324779,52.523848,13.341339,52.533878" projParameter="+proj=utm +zone=33 +ellps=WGS84 +datum=WGS84 +units=m +no_defs"/>

    <type id="highway.bridleway" priority="1" numLanes="1" speed="2.78" allow="pedestrian" oneway="1" width="2.00"/>
    <type id="highway.bus_guideway" priority="1" numLanes="1" speed="27.78" allow="bus" oneway="1"/>
    <type id="highway.cycleway" priority="1" numLanes="1" speed="8.33" allow="bicycle" oneway="0" width="1.00"/>
    <type id="highway.footway" priority="1" numLanes="1" speed="2.78" allow="pedestrian" oneway="1" width="2.00"/>
    <type id="highway.ford" priority="1" numLanes="1" speed="2.78" allow="army" oneway="0"/>
    <type id="highway.living_street" priority="2" numLanes="1" speed="2.78" disallow="tram rail_urban rail rail_electric rail_fast ship" oneway="0"/>
    <type id="highway.motorway" priority="14" numLanes="2" speed="39.44" allow="private emergency authority army vip passenger hov taxi bus coach delivery truck trailer motorcycle evehicle custom1 custom2" oneway="1"/>
    <type id="highway.motorway_link" priority="9" numLanes="1" speed="22.22" allow="private emergency authority army vip passenger hov taxi bus coach delivery truck trailer motorcycle evehicle custom1 custom2" oneway="1"/>
    <type id="highway.path" priority="1" numLanes="1" speed="2.78" allow="pedestrian bicycle" oneway="0" width="2.00"/>
    <type id="highway.pedestrian" priority="1" numLanes="1" speed="2.78" allow="pedestrian" oneway="1" width="2.00"/>
    <type id="highway.primary" priority="12" numLanes="2" speed="27.78" disallow="tram rail_urban rail rail_electric rail_fast ship" oneway="0"/>
    <type id="highway.primary_link" priority="7" numLanes="1" speed="22.22" disallow="tram rail_urban rail rail_electric rail_fast ship" oneway="0"/>
    <type id="highway.raceway" priority="15" numLanes="2" speed="83.33" allow="vip" oneway="0"/>
    <type id="highway.residential" priority="3" numLanes="1" speed="13.89" disallow="tram rail_urban rail rail_electric rail_fast ship" oneway="0"/>
    <type id="highway.secondary" priority="11" numLanes="1" speed="27.78" disallow="tram rail_urban rail rail_electric rail_fast ship" oneway="0"/>
    <type id="highway.secondary_link" priority="6" numLanes="1" speed="22.22" disallow="tram rail_urban rail rail_electric rail_fast ship" oneway="0"/>
    <type id="highway.service" priority="1" numLanes="1" speed="5.56" allow="pedestrian delivery bicycle" oneway="0"/>
    <type id="highway.stairs" priority="1" numLanes="1" speed="1.39" allow="pedestrian" oneway="1" width="2.00"/>
    <type id="highway.step" priority="1" numLanes="1" speed="1.39" allow="pedestrian" oneway="1" width="2.00"/>
    <type id="highway.steps" priority="1" numLanes="1" speed="1.39" allow="pedestrian" oneway="1" width="2.00"/>
    <type id="highway.tertiary" priority="10" numLanes="1" speed="22.22" disallow="tram rail_urban rail rail_electric rail_fast ship" oneway="0"/>
    <type id="highway.tertiary_link" priority="5" numLanes="1" speed="22.22" disallow="tram rail_urban rail rail_electric rail_fast ship" oneway="0"/>
    <type id="highway.track" priority="1" numLanes="1" speed="5.56" allow="pedestrian motorcycle moped bicycle" oneway="0"/>
    <type id="highway.trunk" priority="13" numLanes="2" speed="27.78" disallow="pedestrian bicycle tram rail_urban rail rail_electric rail_fast ship" oneway="0"/>
    <type id="highway.trunk_link" priority="8" numLanes="1" speed="22.22" disallow="pedestrian bicycle tram rail_urban rail rail_electric rail_fast ship" oneway="0"/>
    <type id="highway.unclassified" priority="4" numLanes="1" speed="13.89" disallow="tram rail_urban rail rail_electric rail_fast ship" oneway="0"/>
    <type id="highway.unsurfaced" priority="1" numLanes="1" speed="8.33" disallow="tram rail_urban rail rail_electric rail_fast ship" oneway="0"/>
    <type id="railway.highspeed" priority="21" numLanes="1" speed="69.44" allow="rail_fast" oneway="1"/>
    <type id="railway.light_rail" priority="19" numLanes="1" speed="27.78" allow="rail_urban" oneway="1"/>
    <type id="railway.preserved" priority="16" numLanes="1" speed="27.78" allow="rail" oneway="1"/>
    <type id="railway.rail" priority="20" numLanes="1" speed="44.44" allow="rail" oneway="1"/>
    <type id="railway.subway" priority="18" numLanes="1" speed="27.78" allow="rail_urban" oneway="1"/>
    <type id="railway.tram" priority="17" numLanes="1" speed="13.89" allow="tram" oneway="1"/>

    <edge id=":1364442736_0" function="internal">
        <lane id=":1364442736_0_0" index="0" allow="bicycle" speed="13.89" length="0.29" width="1.00" shape="276.87,1024.62 276.59,1024.65"/>
        <lane id=":1364442736_0_1" index="1" disallow="bicycle tram rail_urban rail rail_electric rail_fast ship" speed="13.89" length="0.29" shape="276.66,1022.53 276.38,1022.56"/>
        <lane id=":1364442736_0_2" index="2" disallow="bicycle tram rail_urban rail rail_electric rail_fast ship" speed="13.89" length="0.29" shape="276.35,1019.35 276.06,1019.38"/>
        <lane id=":1364442736_0_3" index="3" disallow="bicycle tram rail_urban rail rail_electric rail_fast ship" speed="13.89" length="0.29" shape="276.04,1016.17 275.74,1016.19"/>
    </edge>
    <edge id=":1364442736_4" function="internal">
        <lane id=":1364442736_4_0" index="0" allow="bicycle" speed="13.89" length="0.31" width="1.00" shape="274.89,1007.74 275.21,1007.71"/>
        <lane id=":1364442736_4_1" index="1" disallow="bicycle tram rail_urban rail rail_electric rail_fast ship" speed="13.89" length="0.31" shape="275.10,1009.83 275.42,1009.80"/>
        <lane id=":1364442736_4_2" index="2" disallow="bicycle tram rail_urban rail rail_electric rail_fast ship" speed="13.89" length="0.31" shape="275.42,1013.01 275.73,1012.98"/>
    </edge>
    <edge id=":1521765396_0" function="internal">
        <lane id=":1521765396_0_0" index="0" disallow="tram rail_urban rail rail_electric rail_fast ship" speed="2.78" length="7.79" shape="497.77,955.25 497.84,957.39 497.21,959.03 495.87,960.17 493.83,960.81"/>
    </edge>
    <edge id=":1521765396_1" function="internal">
        <lane id=":1521765396_1_0" index="0" disallow="tram rail_urban rail rail_electric rail_fast ship" speed="2.78" length="2.60" shape="493.31,957.66 493.99,957.44 494.43,957.06 494.64,956.52 494.62,955.80"/>
    </edge>
    <edge id=":1846908923_0" function="internal">
        <lane id=":1846908923_0_0" index="0" disallow="tram rail_urban rail rail_electric rail_fast ship" speed="2.78" length="9.03" shape="640.03,749.00 639.28,746.63 637.95,745.10 636.04,744.39 633.56,744.52"/>
    </edge>
    <edge id=":1846908923_1" function="internal">
        <lane id=":1846908923_1_0" index="0" disallow="tram rail_urban rail rail_electric rail_fast ship" speed="2.78" length="14.49" shape="640.03,749.00 637.60,734.72"/>
    </edge>
    <edge id=":1846908923_2" function="internal">
        <lane id=":1846908923_2_0" index="0" disallow="tram rail_urban rail rail_electric rail_fast ship" speed="2.78" length="14.29" shape="640.03,749.00 639.93,745.08 641.10,742.05 643.54,739.93 647.23,738.71"/>
    </edge>
    <edge id=":1846908923_3" function="internal">
        <lane id=":1846908923_3_0" index="0" disallow="tram rail_urban rail rail_electric rail_fast ship" speed="2.78" length="4.67" shape="640.03,749.00 640.62,747.69 641.34,747.16 642.20,747.43 643.18,748.48"/>
    </edge>
    <edge id=":1846908923_4" function="internal">
        <lane id=":1846908923_4_0" index="0" disallow="tram rail_urban rail rail_electric rail_fast ship" speed="2.78" length="9.18" shape="647.79,741.86 645.42,742.64 643.87,744.01 643.12,745.95 643.18,748.48"/>
    </edge>
    <edge id=":1846908923_5" function="internal">
        <lane id=":1846908923_5_0" index="0" disallow="tram rail_urban rail rail_electric rail_fast ship" speed="2.78" length="14.48" shape="647.79,741.86 633.56,744.52"/>
    </edge>
    <edge id=":1846908923_6" function="internal">
        <lane id=":1846908923_6_0" index="0" disallow="tram rail_urban rail rail_electric rail_fast ship" speed="2.78" length="14.20" shape="647.79,741.86 643.90,741.99 640.90,740.84 638.80,738.42 637.60,734.72"/>
    </edge>
    <edge id=":1846908923_7" function="internal">
        <lane id=":1846908923_7_0" index="0" disallow="tram rail_urban rail rail_electric rail_fast ship" speed="2.78" length="4.67" shape="647.79,741.86 646.47,741.28 645.94,740.56 646.19,739.71 647.23,738.71"/>
    </edge>
    <edge id=":1846908923_8" function="internal">
        <lane id=":1846908923_8_0" index="0" disallow="tram rail_urban rail rail_electric rail_fast ship" speed="2.78" length="9.03" shape="640.75,734.17 641.52,736.52 642.85,738.06 644.76,738.79 647.23,738.71"/>
    </edge>
    <edge id=":1846908923_9" function="internal">
        <lane id=":1846908923_9_0" index="0" disallow="tram rail_urban rail rail_electric rail_fast ship" speed="2.78" length="14.52" shape="640.75,734.17 643.18,748.48"/>
    </edge>
    <edge id=":1846908923_10" function="internal">
        <lane id=":1846908923_10_0" index="0" disallow="tram rail_urban rail rail_electric rail_fast ship" speed="2.78" length="14.31" shape="640.75,734.17 640.87,738.06 639.71,741.08 637.27,743.23 633.56,744.52"/>
    </edge>
    <edge id=":1846908923_11" function="internal">
        <lane id=":1846908923_11_0" index="0" disallow="tram rail_urban rail rail_electric rail_fast ship" speed="2.78" length="4.67" shape="640.75,734.17 640.17,735.49 639.45,736.02 638.59,735.76 637.60,734.72"/>
    </edge>
    <edge id=":1846908923_12" function="internal">
        <lane id=":1846908923_12_0" index="0" disallow="tram rail_urban rail rail_electric rail_fast ship" speed="2.78" length="9.22" shape="632.94,741.38 635.34,740.55 636.92,739.16 637.67,737.22 637.60,734.72"/>
    </edge>
    <edge id=":1846908923_13" function="internal">
        <lane id=":1846908923_13_0" index="0" disallow="tram rail_urban rail rail_electric rail_fast ship" speed="2.78" length="14.53" shape="632.94,741.38 647.23,738.71"/>
    </edge>
    <edge id=":1846908923_14" function="internal">
        <lane id=":1846908923_14_0" index="0" disallow="tram rail_urban rail rail_electric rail_fast ship" speed="2.78" length="14.31" shape="632.94,741.38 636.88,741.18 639.89,742.29 642.00,744.73 643.18,748.48"/>
    </edge>
    <edge id=":1846908923_15" function="internal">
        <lane id=":1846908923_15_0" index="0" disallow="tram rail_urban rail rail_electric rail_fast ship" speed="2.78" length="4.67" shape="632.94,741.38 634.28,741.93 634.82,742.64 634.58,743.50 633.56,744.52"/>
    </edge>
    <edge id=":1918759971_0" function="internal">
        <lane id=":1918759971_0_0" index="0" disallow="tram rail_urban rail rail_electric rail_fast ship" speed="2.78" length="4.67" shape="4.63,780.19 3.54,779.24 3.25,778.39 3.75,777.65 5.05,777.01"/>
    </edge>
    <edge id=":1929624605_0" function="internal">
        <lane id=":1929624605_0_0" index="0" disallow="bicycle tram rail_urban rail rail_electric rail_fast ship" speed="3.65" length="4.67" shape="319.87,0.13 320.57,-1.13 321.33,-1.59 322.16,-1.26 323.06,-0.13"/>
    </edge>
    <edge id=":1932251257_0" function="internal">
        <lane id=":1932251257_0_0" index="0" allow="bicycle" speed="13.89" length="6.66" width="1.00" shape="336.67,1028.29 335.11,1027.65 334.01,1027.34 332.87,1027.13 331.21,1026.84"/>
        <lane id=":1932251257_0_1" index="1" disallow="bicycle tram rail_urban rail rail_electric rail_fast ship" speed="13.89" length="6.66" shape="337.52,1026.38 335.85,1025.68 334.65,1025.33 333.41,1025.10 331.62,1024.78"/>
        <lane id=":1932251257_0_2" index="2" disallow="bicycle tram rail_urban rail rail_electric rail_fast ship" speed="13.89" length="6.66" shape="338.83,1023.46 336.96,1022.68 335.63,1022.27 334.25,1022.01 332.24,1021.64"/>
        <lane id=":1932251257_0_3" index="3" disallow="bicycle tram rail_urban rail rail_electric rail_fast ship" speed="13.89" length="6.66" shape="338.83,1023.46 336.94,1022.12 335.95,1020.67 334.91,1019.37 332.87,1018.50"/>
    </edge>
    <edge id=":1932251257_4" function="internal">
        <lane id=":1932251257_4_0" index="0" allow="bicycle" speed="13.89" length="9.21" width="1.00" shape="334.53,1010.16 337.11,1011.15 338.54,1012.55 339.91,1014.14 342.31,1015.70"/>
        <lane id=":1932251257_4_1" index="1" disallow="bicycle tram rail_urban rail rail_electric rail_fast ship" speed="13.89" length="9.21" shape="334.12,1012.22 336.56,1013.18 337.90,1014.55 339.18,1016.11 341.45,1017.62"/>
        <lane id=":1932251257_4_2" index="2" disallow="bicycle tram rail_urban rail rail_electric rail_fast ship" speed="13.89" length="9.21" shape="333.49,1015.36 335.73,1016.27 336.93,1017.61 338.06,1019.12 340.14,1020.54"/>
    </edge>
    <edge id=":1932251258_0" function="internal">
        <lane id=":1932251258_0_0" index="0" allow="bicycle" speed="13.89" length="9.46" width="1.00" shape="421.21,1078.79 412.83,1074.44"/>
        <lane id=":1932251258_0_1" index="1" disallow="bicycle tram rail_urban rail rail_electric rail_fast ship" speed="13.89" length="9.46" shape="422.19,1076.93 413.77,1072.56"/>
    </edge>
    <edge id=":1932251258_2" function="internal">
        <lane id=":1932251258_2_0" index="0" allow="pedestrian delivery" speed="7.04" length="4.98" shape="422.19,1076.93 419.52,1074.90 418.88,1073.41"/>
    </edge>
    <edge id=":1932251258_3" function="internal">
        <lane id=":1932251258_3_0" index="0" disallow="bicycle tram rail_urban rail rail_electric rail_fast ship" speed="3.65" length="2.34" shape="422.19,1076.93 421.51,1075.66 421.53,1074.77"/>
    </edge>
    <edge id=":1932251258_14" function="internal">
        <lane id=":1932251258_14_0" index="0" allow="pedestrian delivery" speed="7.04" length="7.77" shape="418.88,1073.41 418.47,1072.47 419.06,1069.67 421.27,1066.48"/>
    </edge>
    <edge id=":1932251258_15" function="internal">
        <lane id=":1932251258_15_0" index="0" disallow="bicycle tram rail_urban rail rail_electric rail_fast ship" speed="3.65" length="2.34" shape="421.53,1074.77 422.25,1074.25 423.69,1074.10"/>
    </edge>
    <edge id=":1932251258_4" function="internal">
        <lane id=":1932251258_4_0" index="0" allow="bicycle" speed="4.02" length="3.31" width="1.00" shape="424.29,1069.55 423.75,1070.35 423.63,1071.07 423.94,1071.70 424.67,1072.24"/>
    </edge>
    <edge id=":1932251258_5" function="internal">
        <lane id=":1932251258_5_0" index="0" allow="pedestrian delivery" speed="5.20" length="6.40" shape="423.48,1068.82 422.31,1070.46 421.96,1071.89 422.41,1073.11 423.69,1074.10"/>
    </edge>
    <edge id=":1932251258_6" function="internal">
        <lane id=":1932251258_6_0" index="0" allow="bicycle" speed="8.29" length="12.21" width="1.00" shape="422.66,1068.08 419.43,1071.40 416.71,1073.57 414.51,1074.58 412.83,1074.44"/>
    </edge>
    <edge id=":1932251258_7" function="internal">
        <lane id=":1932251258_7_0" index="0" allow="pedestrian delivery" speed="7.96" length="11.19" shape="423.48,1068.82 420.87,1071.28 418.39,1072.73 416.02,1073.15 413.77,1072.56"/>
    </edge>
    <edge id=":1932251258_8" function="internal">
        <lane id=":1932251258_8_0" index="0" allow="pedestrian delivery bicycle" speed="3.65" length="4.69" shape="423.48,1068.82 422.05,1069.06 421.21,1068.75 420.95,1067.89 421.27,1066.48"/>
    </edge>
    <edge id=":1932251258_9" function="internal">
        <lane id=":1932251258_9_0" index="0" allow="bicycle" speed="5.31" length="5.09" shape="416.15,1067.83 417.05,1068.01 418.07,1067.73 419.20,1066.97 420.45,1065.74"/>
    </edge>
    <edge id=":1932251258_10" function="internal">
        <lane id=":1932251258_10_0" index="0" allow="bicycle" speed="13.89" length="9.60" width="1.00" shape="416.15,1067.83 424.67,1072.24"/>
    </edge>
    <edge id=":1932251258_11" function="internal">
        <lane id=":1932251258_11_0" index="0" allow="pedestrian delivery" speed="6.54" length="2.24" shape="415.21,1069.70 416.41,1069.91 417.38,1069.59"/>
    </edge>
    <edge id=":1932251258_12" function="internal">
        <lane id=":1932251258_12_0" index="0" disallow="bicycle tram rail_urban rail rail_electric rail_fast ship" speed="13.89" length="9.55" shape="415.21,1069.70 423.69,1074.10"/>
    </edge>
    <edge id=":1932251258_13" function="internal">
        <lane id=":1932251258_13_0" index="0" disallow="bicycle tram rail_urban rail rail_electric rail_fast ship" speed="3.65" length="2.34" shape="415.21,1069.70 415.92,1070.96 415.92,1071.85"/>
    </edge>
    <edge id=":1932251258_16" function="internal">
        <lane id=":1932251258_16_0" index="0" allow="pedestrian delivery" speed="6.54" length="5.03" shape="417.38,1069.59 417.82,1069.45 419.44,1068.30 421.27,1066.48"/>
    </edge>
    <edge id=":1932251258_17" function="internal">
        <lane id=":1932251258_17_0" index="0" disallow="bicycle tram rail_urban rail rail_electric rail_fast ship" speed="3.65" length="2.34" shape="415.92,1071.85 415.20,1072.39 413.77,1072.56"/>
    </edge>
    <edge id=":1932251259_0" function="internal">
        <lane id=":1932251259_0_0" index="0" allow="bicycle" speed="13.89" length="3.51" width="1.00" shape="338.16,1030.40 336.85,1028.37"/>
        <lane id=":1932251259_0_1" index="1" disallow="bicycle tram rail_urban rail rail_electric rail_fast ship" speed="13.89" length="3.51" shape="339.79,1029.01 339.13,1028.28 338.83,1027.61 338.48,1027.00 337.71,1026.46"/>
        <lane id=":1932251259_0_2" index="2" disallow="bicycle tram rail_urban rail rail_electric rail_fast ship" speed="13.89" length="3.51" shape="342.28,1026.89 341.29,1025.90 340.76,1025.03 340.17,1024.26 339.02,1023.54"/>
    </edge>
    <edge id=":1932251259_3" function="internal">
        <lane id=":1932251259_3_0" index="0" allow="bicycle" speed="13.89" length="4.58" width="1.00" shape="342.49,1015.78 343.47,1016.49 343.97,1017.26 344.48,1017.98 345.53,1018.49"/>
        <lane id=":1932251259_3_1" index="1" disallow="bicycle tram rail_urban rail rail_electric rail_fast ship" speed="13.89" length="4.58" shape="341.63,1017.70 342.71,1018.45 343.28,1019.25 343.88,1019.99 345.03,1020.53"/>
        <lane id=":1932251259_3_2" index="2" disallow="bicycle tram rail_urban rail rail_electric rail_fast ship" speed="13.89" length="4.58" shape="340.32,1020.62 341.56,1021.43 342.24,1022.28 342.95,1023.06 344.26,1023.64"/>
    </edge>
    <edge id=":1932251259_6" function="internal">
        <lane id=":1932251259_6_0" index="0" disallow="bicycle tram rail_urban rail rail_electric rail_fast ship" speed="3.65" length="2.56" shape="340.32,1020.62 341.09,1021.84 341.13,1022.73 340.96,1022.87"/>
    </edge>
    <edge id=":1932251259_7" function="internal">
        <lane id=":1932251259_7_0" index="0" disallow="bicycle tram rail_urban rail rail_electric rail_fast ship" speed="3.65" length="2.12" shape="340.96,1022.87 340.44,1023.30 339.02,1023.54"/>
    </edge>
    <edge id=":1932291458_0" function="internal">
        <lane id=":1932291458_0_0" index="0" allow="pedestrian delivery bicycle" speed="3.92" length="3.32" shape="21.28,591.62 20.35,591.85 19.67,591.69 19.25,591.13 19.09,590.18"/>
    </edge>
    <edge id=":1932291473_0" function="internal">
        <lane id=":1932291473_0_0" index="0" allow="pedestrian delivery bicycle" speed="4.74" length="1.04" shape="112.86,575.04 113.00,575.30 113.03,575.51 113.02,575.73 113.00,576.04"/>
    </edge>
    <edge id=":1942590570_0" function="internal">
        <lane id=":1942590570_0_0" index="0" allow="bicycle" speed="13.89" length="9.12" width="1.00" shape="361.76,1042.37 359.46,1041.26 357.61,1041.15 355.69,1041.12 353.23,1040.27"/>
        <lane id=":1942590570_0_1" index="1" disallow="bicycle tram rail_urban rail rail_electric rail_fast ship" speed="13.89" length="9.12" shape="362.98,1040.66 360.59,1039.49 358.66,1039.33 356.68,1039.26 354.12,1038.36"/>
        <lane id=":1942590570_0_2" index="2" disallow="bicycle tram rail_urban rail rail_electric rail_fast ship" speed="13.89" length="9.12" shape="362.98,1040.66 360.80,1039.03 359.34,1037.88 357.82,1036.81 355.47,1035.45"/>
    </edge>
    <edge id=":1942590570_3" function="internal">
        <lane id=":1942590570_3_0" index="0" disallow="bicycle tram rail_urban rail rail_electric rail_fast ship" speed="3.65" length="2.34" shape="362.98,1040.66 362.46,1039.31 362.60,1038.43"/>
    </edge>
    <edge id=":1942590570_7" function="internal">
        <lane id=":1942590570_7_0" index="0" disallow="bicycle tram rail_urban rail rail_electric rail_fast ship" speed="3.65" length="2.34" shape="362.60,1038.43 363.39,1038.01 364.83,1038.05"/>
    </edge>
    <edge id=":1942590570_4" function="internal">
        <lane id=":1942590570_4_0" index="0" allow="bicycle" speed="13.89" length="8.44" width="1.00" shape="361.98,1028.70 363.61,1030.34 364.77,1031.41 366.02,1032.39 367.90,1033.73"/>
        <lane id=":1942590570_4_1" index="1" disallow="bicycle tram rail_urban rail rail_electric rail_fast ship" speed="13.89" length="8.44" shape="360.33,1030.01 362.08,1031.78 363.33,1032.94 364.67,1033.99 366.69,1035.44"/>
        <lane id=":1942590570_4_2" index="2" disallow="bicycle tram rail_urban rail rail_electric rail_fast ship" speed="13.89" length="8.44" shape="357.90,1032.10 359.80,1034.04 361.16,1035.31 362.63,1036.46 364.83,1038.05"/>
    </edge>
    <edge id=":2139166116_0" function="internal">
        <lane id=":2139166116_0_0" index="0" allow="bicycle" speed="13.89" length="0.30" width="1.00" shape="76.31,969.65 76.03,969.57"/>
        <lane id=":2139166116_0_1" index="1" disallow="bicycle tram rail_urban rail rail_electric rail_fast ship" speed="13.89" length="0.30" shape="76.89,967.63 76.61,967.55"/>
    </edge>
    <edge id=":2139166116_2" function="internal">
        <lane id=":2139166116_2_0" index="0" allow="bicycle" speed="13.89" length="0.30" width="1.00" shape="78.07,962.46 78.36,962.54"/>
        <lane id=":2139166116_2_1" index="1" disallow="bicycle tram rail_urban rail rail_electric rail_fast ship" speed="13.89" length="0.30" shape="77.49,964.47 77.78,964.56"/>
    </edge>
    <edge id=":26682569_0" function="internal">
        <lane id=":26682569_0_0" index="0" allow="bicycle" speed="5.25" length="7.01" width="1.00" shape="254.04,409.61 253.78,407.28 253.09,405.70 251.97,404.88 250.42,404.81"/>
    </edge>
    <edge id=":26682569_1" function="internal">
        <lane id=":26682569_1_0" index="0" allow="bicycle" speed="8.33" length="14.76" width="1.00" shape="254.04,409.61 253.96,405.23 253.79,402.23 253.38,399.26 252.56,394.96"/>
    </edge>
    <edge id=":26682569_2" function="internal">
        <lane id=":26682569_2_0" index="0" disallow="bicycle tram rail_urban rail rail_electric rail_fast ship" speed="6.69" length="10.79" shape="256.14,409.58 255.71,406.19 254.55,403.92 252.67,402.77 250.05,402.75"/>
    </edge>
    <edge id=":26682569_3" function="internal">
        <lane id=":26682569_3_0" index="0" disallow="bicycle tram rail_urban rail rail_electric rail_fast ship" speed="8.33" length="15.15" shape="256.14,409.58 256.06,405.09 255.89,402.01 255.46,398.96 254.61,394.55"/>
    </edge>
    <edge id=":26682569_4" function="internal">
        <lane id=":26682569_4_0" index="0" disallow="bicycle tram rail_urban rail rail_electric rail_fast ship" speed="3.65" length="4.67" shape="256.14,409.58 256.92,408.37 257.71,407.96 258.52,408.34 259.34,409.53"/>
    </edge>
    <edge id=":26682569_5" function="internal">
        <lane id=":26682569_5_0" index="0" allow="bicycle" speed="5.74" length="6.53" width="1.00" shape="265.62,405.28 263.77,405.84 262.46,406.73 261.68,407.95 261.44,409.50"/>
    </edge>
    <edge id=":26682569_6" function="internal">
        <lane id=":26682569_6_0" index="0" allow="bicycle" speed="13.89" length="15.32" width="1.00" shape="265.62,405.28 261.15,405.61 258.03,405.07 254.90,404.52 250.42,404.81"/>
    </edge>
    <edge id=":26682569_7" function="internal">
        <lane id=":26682569_7_0" index="0" allow="bicycle" speed="9.03" length="18.91" width="1.00" shape="265.62,405.28 260.82,405.39 257.05,403.70 254.29,400.23 252.56,394.96"/>
    </edge>
    <edge id=":26682569_8" function="internal">
        <lane id=":26682569_8_0" index="0" disallow="bicycle tram rail_urban rail rail_electric rail_fast ship" speed="7.10" length="3.63" shape="265.23,403.22 262.62,404.03 261.89,404.55"/>
    </edge>
    <edge id=":26682569_9" function="internal">
        <lane id=":26682569_9_0" index="0" disallow="bicycle tram rail_urban rail rail_electric rail_fast ship" speed="13.89" length="14.83" shape="264.64,400.07 250.05,402.75"/>
    </edge>
    <edge id=":26682569_10" function="internal">
        <lane id=":26682569_10_0" index="0" disallow="bicycle tram rail_urban rail rail_electric rail_fast ship" speed="7.04" length="10.68" shape="264.04,396.93 260.22,397.39 257.37,397.15 255.50,396.20 254.61,394.55"/>
    </edge>
    <edge id=":26682569_16" function="internal">
        <lane id=":26682569_16_0" index="0" disallow="bicycle tram rail_urban rail rail_electric rail_fast ship" speed="7.10" length="5.88" shape="261.89,404.55 260.77,405.36 259.67,407.19 259.34,409.53"/>
    </edge>
    <edge id=":26682569_11" function="internal">
        <lane id=":26682569_11_0" index="0" allow="bicycle" speed="8.33" length="16.11" width="1.00" shape="259.81,393.52 260.71,398.21 261.17,401.45 261.35,404.72 261.44,409.50"/>
    </edge>
    <edge id=":26682569_12" function="internal">
        <lane id=":26682569_12_0" index="0" allow="bicycle" speed="8.42" length="16.78" width="1.00" shape="259.81,393.52 259.92,397.71 258.39,400.99 255.22,403.35 250.42,404.81"/>
    </edge>
    <edge id=":26682569_13" function="internal">
        <lane id=":26682569_13_0" index="0" disallow="bicycle tram rail_urban rail rail_electric rail_fast ship" speed="8.33" length="15.73" shape="257.75,393.93 258.63,398.51 259.07,401.67 259.25,404.87 259.34,409.53"/>
    </edge>
    <edge id=":26682569_14" function="internal">
        <lane id=":26682569_14_0" index="0" disallow="bicycle tram rail_urban rail rail_electric rail_fast ship" speed="7.72" length="13.36" shape="257.75,393.93 257.81,397.17 256.54,399.73 253.96,401.58 250.05,402.75"/>
    </edge>
    <edge id=":26682569_15" function="internal">
        <lane id=":26682569_15_0" index="0" disallow="bicycle tram rail_urban rail rail_electric rail_fast ship" speed="3.65" length="4.67" shape="257.75,393.93 257.20,395.26 256.50,395.81 255.63,395.57 254.61,394.55"/>
    </edge>
    <edge id=":26726581_0" function="internal">
        <lane id=":26726581_0_0" index="0" allow="bicycle" speed="8.33" length="11.42" width="1.00" shape="490.32,992.08 486.98,991.87 484.70,991.84 482.41,991.97 479.08,992.25"/>
        <lane id=":26726581_0_1" index="1" disallow="bicycle tram rail_urban rail rail_electric rail_fast ship" speed="8.33" length="11.42" shape="490.47,989.99 487.04,989.77 484.68,989.74 482.33,989.87 478.91,990.15"/>
    </edge>
    <edge id=":26726581_2" function="internal">
        <lane id=":26726581_2_0" index="0" disallow="bicycle tram rail_urban rail rail_electric rail_fast ship" speed="5.56" length="4.83" shape="490.47,989.99 487.53,989.25 486.10,988.16"/>
    </edge>
    <edge id=":26726581_3" function="internal">
        <lane id=":26726581_3_0" index="0" disallow="bicycle tram rail_urban rail rail_electric rail_fast ship" speed="3.65" length="2.34" shape="490.47,989.99 489.33,989.10 488.98,988.28"/>
    </edge>
    <edge id=":26726581_14" function="internal">
        <lane id=":26726581_14_0" index="0" disallow="bicycle tram rail_urban rail rail_electric rail_fast ship" speed="5.56" length="8.30" shape="486.10,988.16 485.22,987.48 483.54,984.70 482.49,980.90"/>
    </edge>
    <edge id=":26726581_15" function="internal">
        <lane id=":26726581_15_0" index="0" disallow="bicycle tram rail_urban rail rail_electric rail_fast ship" speed="3.65" length="2.34" shape="488.98,988.28 489.44,987.51 490.69,986.80"/>
    </edge>
    <edge id=":26726581_4" function="internal">
        <lane id=":26726581_4_0" index="0" allow="bicycle" speed="5.56" length="6.64" width="1.00" shape="486.73,980.18 487.26,982.07 488.12,983.45 489.32,984.33 490.84,984.70"/>
    </edge>
    <edge id=":26726581_5" function="internal">
        <lane id=":26726581_5_0" index="0" disallow="bicycle tram rail_urban rail rail_electric rail_fast ship" speed="5.56" length="8.84" shape="485.65,980.36 486.35,983.07 487.43,985.05 488.88,986.29 490.69,986.80"/>
    </edge>
    <edge id=":26726581_6" function="internal">
        <lane id=":26726581_6_0" index="0" allow="bicycle" speed="5.56" length="14.81" width="1.00" shape="484.56,980.55 484.93,985.44 484.13,989.02 482.19,991.29 479.08,992.25"/>
    </edge>
    <edge id=":26726581_7" function="internal">
        <lane id=":26726581_7_0" index="0" disallow="bicycle tram rail_urban rail rail_electric rail_fast ship" speed="5.56" length="13.82" shape="485.65,980.36 485.81,984.39 484.74,987.36 482.44,989.28 478.91,990.15"/>
    </edge>