<?xml version="1.0" encoding="UTF-8"?>

<!-- generated on Di 16 Mär 2021 11:44:21 CET by Eclipse SUMO netedit Version v1_7_0+1228-0b1a97d77e
<configuration xmlns:xsi="http://www.w3.org/2001/XMLSchema-instance" xsi:noNamespaceSchemaLocation="http://sumo.dlr.de/xsd/netconvertConfiguration.xsd">

    <output>
        <output-file value="/home/kons/GIT/sumo/traci_test/traci_dummy.net.xml"/>
        <output.street-names value="true"/>
    </output>

    <processing>
        <offset.disable-normalization value="true"/>
    </processing>

    <junctions>
        <no-turnarounds value="true"/>
    </junctions>

    <netedit>
        <route-files value="/home/kons/GIT/sumo/traci_test/asd.rou.xml"/>
    </netedit>

    <report>
        <aggregate-warnings value="5"/>
    </report>

</configuration>
-->

<routes xmlns:xsi="http://www.w3.org/2001/XMLSchema-instance" xsi:noNamespaceSchemaLocation="http://sumo.dlr.de/xsd/routes_file.xsd">

    <vTypeDistribution id="vehDist">
        <vType id="vehDist0" accel="0.925" maxSpeed="6.443" speedDev="0.000" speedFactor="4.000" vClass="bicycle">
            <param key="has.fcd.device" value="true"/>
        </vType>
        <vType id="vehDist1" accel="1.012" maxSpeed="7.388" speedDev="0.000" speedFactor="4.000" vClass="bicycle">
            <param key="has.fcd.device" value="true"/>
        </vType>
        <vType id="vehDist2" accel="0.907" maxSpeed="7.870" speedDev="0.000" speedFactor="4.000" vClass="bicycle">
            <param key="has.fcd.device" value="true"/>
        </vType>
        <vType id="vehDist3" accel="1.246" maxSpeed="6.254" speedDev="0.000" speedFactor="4.000" vClass="bicycle">
            <param key="has.fcd.device" value="true"/>
        </vType>
        <vType id="vehDist4" accel="0.578" maxSpeed="6.012" speedDev="0.000" speedFactor="4.000" vClass="bicycle">
            <param key="has.fcd.device" value="true"/>
        </vType>
        <vType id="vehDist5" accel="0.575" maxSpeed="5.681" speedDev="0.000" speedFactor="4.000" vClass="bicycle">
            <param key="has.fcd.device" value="true"/>
        </vType>
        <vType id="vehDist6" accel="0.976" maxSpeed="8.079" speedDev="0.000" speedFactor="4.000" vClass="bicycle">
            <param key="has.fcd.device" value="true"/>
        </vType>
        <vType id="vehDist7" accel="0.656" maxSpeed="7.997" speedDev="0.000" speedFactor="4.000" vClass="bicycle">
            <param key="has.fcd.device" value="true"/>
        </vType>
        <vType id="vehDist8" accel="0.595" maxSpeed="5.852" speedDev="0.000" speedFactor="4.000" vClass="bicycle">
            <param key="has.fcd.device" value="true"/>
        </vType>
        <vType id="vehDist9" accel="0.765" maxSpeed="8.258" speedDev="0.000" speedFactor="4.000" vClass="bicycle">
            <param key="has.fcd.device" value="true"/>
        </vType>
        <vType id="vehDist10" accel="0.507" maxSpeed="5.372" speedDev="0.000" speedFactor="4.000" vClass="bicycle">
            <param key="has.fcd.device" value="true"/>
        </vType>
        <vType id="vehDist11" accel="0.462" maxSpeed="9.511" speedDev="0.000" speedFactor="4.000" vClass="bicycle">
            <param key="has.fcd.device" value="true"/>
        </vType>
        <vType id="vehDist12" accel="0.987" maxSpeed="4.866" speedDev="0.000" speedFactor="4.000" vClass="bicycle">
            <param key="has.fcd.device" value="true"/>
        </vType>
        <vType id="vehDist13" accel="0.942" maxSpeed="5.721" speedDev="0.000" speedFactor="4.000" vClass="bicycle">
            <param key="has.fcd.device" value="true"/>
        </vType>
        <vType id="vehDist14" accel="0.574" maxSpeed="6.959" speedDev="0.000" speedFactor="4.000" vClass="bicycle">
            <param key="has.fcd.device" value="true"/>
        </vType>
        <vType id="vehDist15" accel="1.031" maxSpeed="9.083" speedDev="0.000" speedFactor="4.000" vClass="bicycle">
            <param key="has.fcd.device" value="true"/>
        </vType>
        <vType id="vehDist16" accel="0.703" maxSpeed="8.795" speedDev="0.000" speedFactor="4.000" vClass="bicycle">
            <param key="has.fcd.device" value="true"/>
        </vType>
        <vType id="vehDist17" accel="0.871" maxSpeed="8.899" speedDev="0.000" speedFactor="4.000" vClass="bicycle">
            <param key="has.fcd.device" value="true"/>
        </vType>
        <vType id="vehDist18" accel="1.057" maxSpeed="6.219" speedDev="0.000" speedFactor="4.000" vClass="bicycle">
            <param key="has.fcd.device" value="true"/>
        </vType>
        <vType id="vehDist19" accel="0.599" maxSpeed="5.995" speedDev="0.000" speedFactor="4.000" vClass="bicycle">
            <param key="has.fcd.device" value="true"/>
        </vType>
        <vType id="vehDist20" accel="0.825" maxSpeed="6.596" speedDev="0.000" speedFactor="4.000" vClass="bicycle">
            <param key="has.fcd.device" value="true"/>
        </vType>
        <vType id="vehDist21" accel="1.036" maxSpeed="8.419" speedDev="0.000" speedFactor="4.000" vClass="bicycle">
            <param key="has.fcd.device" value="true"/>
        </vType>
        <vType id="vehDist22" accel="1.075" maxSpeed="8.423" speedDev="0.000" speedFactor="4.000" vClass="bicycle">
            <param key="has.fcd.device" value="true"/>
        </vType>
        <vType id="vehDist23" accel="0.623" maxSpeed="9.268" speedDev="0.000" speedFactor="4.000" vClass="bicycle">
            <param key="has.fcd.device" value="true"/>
        </vType>
        <vType id="vehDist24" accel="0.972" maxSpeed="8.039" speedDev="0.000" speedFactor="4.000" vClass="bicycle">
            <param key="has.fcd.device" value="true"/>
        </vType>
        <vType id="vehDist25" accel="1.070" maxSpeed="5.762" speedDev="0.000" speedFactor="4.000" vClass="bicycle">
            <param key="has.fcd.device" value="true"/>
        </vType>
        <vType id="vehDist26" accel="0.515" maxSpeed="7.030" speedDev="0.000" speedFactor="4.000" vClass="bicycle">
            <param key="has.fcd.device" value="true"/>
        </vType>
        <vType id="vehDist27" accel="0.555" maxSpeed="9.682" speedDev="0.000" speedFactor="4.000" vClass="bicycle">
            <param key="has.fcd.device" value="true"/>
        </vType>
        <vType id="vehDist28" accel="0.791" maxSpeed="7.569" speedDev="0.000" speedFactor="4.000" vClass="bicycle">
            <param key="has.fcd.device" value="true"/>
        </vType>
        <vType id="vehDist29" accel="0.762" maxSpeed="9.043" speedDev="0.000" speedFactor="4.000" vClass="bicycle">
            <param key="has.fcd.device" value="true"/>
        </vType>
        <vType id="vehDist30" accel="0.832" maxSpeed="5.944" speedDev="0.000" speedFactor="4.000" vClass="bicycle">
            <param key="has.fcd.device" value="true"/>
        </vType>
        <vType id="vehDist31" accel="0.529" maxSpeed="8.175" speedDev="0.000" speedFactor="4.000" vClass="bicycle">
            <param key="has.fcd.device" value="true"/>
        </vType>
        <vType id="vehDist32" accel="1.086" maxSpeed="5.893" speedDev="0.000" speedFactor="4.000" vClass="bicycle">
            <param key="has.fcd.device" value="true"/>
        </vType>
        <vType id="vehDist33" accel="0.903" maxSpeed="6.841" speedDev="0.000" speedFactor="4.000" vClass="bicycle">
            <param key="has.fcd.device" value="true"/>
        </vType>
        <vType id="vehDist34" accel="0.736" maxSpeed="7.517" speedDev="0.000" speedFactor="4.000" vClass="bicycle">
            <param key="has.fcd.device" value="true"/>
        </vType>
        <vType id="vehDist35" accel="1.022" maxSpeed="5.158" speedDev="0.000" speedFactor="4.000" vClass="bicycle">
            <param key="has.fcd.device" value="true"/>
        </vType>
        <vType id="vehDist36" accel="0.823" maxSpeed="6.353" speedDev="0.000" speedFactor="4.000" vClass="bicycle">
            <param key="has.fcd.device" value="true"/>
        </vType>
        <vType id="vehDist37" accel="0.883" maxSpeed="6.129" speedDev="0.000" speedFactor="4.000" vClass="bicycle">
            <param key="has.fcd.device" value="true"/>
        </vType>
        <vType id="vehDist38" accel="0.743" maxSpeed="9.878" speedDev="0.000" speedFactor="4.000" vClass="bicycle">
            <param key="has.fcd.device" value="true"/>
        </vType>
        <vType id="vehDist39" accel="0.686" maxSpeed="8.000" speedDev="0.000" speedFactor="4.000" vClass="bicycle">
            <param key="has.fcd.device" value="true"/>
        </vType>
        <vType id="vehDist40" accel="0.921" maxSpeed="6.439" speedDev="0.000" speedFactor="4.000" vClass="bicycle">
            <param key="has.fcd.device" value="true"/>
        </vType>
        <vType id="vehDist41" accel="0.735" maxSpeed="5.414" speedDev="0.000" speedFactor="4.000" vClass="bicycle">
            <param key="has.fcd.device" value="true"/>
        </vType>
        <vType id="vehDist42" accel="0.703" maxSpeed="7.654" speedDev="0.000" speedFactor="4.000" vClass="bicycle">
            <param key="has.fcd.device" value="true"/>
        </vType>
        <vType id="vehDist43" accel="0.586" maxSpeed="7.076" speedDev="0.000" speedFactor="4.000" vClass="bicycle">
            <param key="has.fcd.device" value="true"/>
        </vType>
        <vType id="vehDist44" accel="1.104" maxSpeed="7.258" speedDev="0.000" speedFactor="4.000" vClass="bicycle">
            <param key="has.fcd.device" value="true"/>
        </vType>
        <vType id="vehDist45" accel="0.889" maxSpeed="6.075" speedDev="0.000" speedFactor="4.000" vClass="bicycle">
            <param key="has.fcd.device" value="true"/>
        </vType>
        <vType id="vehDist46" accel="1.173" maxSpeed="7.098" speedDev="0.000" speedFactor="4.000" vClass="bicycle">
            <param key="has.fcd.device" value="true"/>
        </vType>
        <vType id="vehDist47" accel="0.807" maxSpeed="6.579" speedDev="0.000" speedFactor="4.000" vClass="bicycle">
            <param key="has.fcd.device" value="true"/>
        </vType>
        <vType id="vehDist48" accel="0.783" maxSpeed="9.486" speedDev="0.000" speedFactor="4.000" vClass="bicycle">
            <param key="has.fcd.device" value="true"/>
        </vType>
        <vType id="vehDist49" accel="1.061" maxSpeed="6.810" speedDev="0.000" speedFactor="4.000" vClass="bicycle">
            <param key="has.fcd.device" value="true"/>
        </vType>
        <vType id="vehDist50" accel="0.654" maxSpeed="6.515" speedDev="0.000" speedFactor="4.000" vClass="bicycle">
            <param key="has.fcd.device" value="true"/>
        </vType>
        <vType id="vehDist51" accel="1.071" maxSpeed="6.097" speedDev="0.000" speedFactor="4.000" vClass="bicycle">
            <param key="has.fcd.device" value="true"/>
        </vType>
        <vType id="vehDist52" accel="0.774" maxSpeed="8.233" speedDev="0.000" speedFactor="4.000" vClass="bicycle">
            <param key="has.fcd.device" value="true"/>
        </vType>
        <vType id="vehDist53" accel="0.880" maxSpeed="5.413" speedDev="0.000" speedFactor="4.000" vClass="bicycle">
            <param key="has.fcd.device" value="true"/>
        </vType>
        <vType id="vehDist54" accel="1.165" maxSpeed="7.207" speedDev="0.000" speedFactor="4.000" vClass="bicycle">
            <param key="has.fcd.device" value="true"/>
        </vType>
        <vType id="vehDist55" accel="0.803" maxSpeed="9.613" speedDev="0.000" speedFactor="4.000" vClass="bicycle">
            <param key="has.fcd.device" value="true"/>
        </vType>
        <vType id="vehDist56" accel="0.771" maxSpeed="6.662" speedDev="0.000" speedFactor="4.000" vClass="bicycle">
            <param key="has.fcd.device" value="true"/>
        </vType>
        <vType id="vehDist57" accel="0.966" maxSpeed="7.430" speedDev="0.000" speedFactor="4.000" vClass="bicycle">
            <param key="has.fcd.device" value="true"/>
        </vType>
        <vType id="vehDist58" accel="1.050" maxSpeed="7.219" speedDev="0.000" speedFactor="4.000" vClass="bicycle">
            <param key="has.fcd.device" value="true"/>
        </vType>
        <vType id="vehDist59" accel="0.799" maxSpeed="5.536" speedDev="0.000" speedFactor="4.000" vClass="bicycle">
            <param key="has.fcd.device" value="true"/>
        </vType>
        <vType id="vehDist60" accel="0.894" maxSpeed="7.942" speedDev="0.000" speedFactor="4.000" vClass="bicycle">
            <param key="has.fcd.device" value="true"/>
        </vType>
        <vType id="vehDist61" accel="0.637" maxSpeed="6.933" speedDev="0.000" speedFactor="4.000" vClass="bicycle">
            <param key="has.fcd.device" value="true"/>
        </vType>
        <vType id="vehDist62" accel="1.017" maxSpeed="9.390" speedDev="0.000" speedFactor="4.000" vClass="bicycle">
            <param key="has.fcd.device" value="true"/>
        </vType>
        <vType id="vehDist63" accel="1.132" maxSpeed="7.048" speedDev="0.000" speedFactor="4.000" vClass="bicycle">
            <param key="has.fcd.device" value="true"/>
        </vType>
        <vType id="vehDist64" accel="0.672" maxSpeed="6.686" speedDev="0.000" speedFactor="4.000" vClass="bicycle">
            <param key="has.fcd.device" value="true"/>
        </vType>
        <vType id="vehDist65" accel="0.689" maxSpeed="5.415" speedDev="0.000" speedFactor="4.000" vClass="bicycle">
            <param key="has.fcd.device" value="true"/>
        </vType>
        <vType id="vehDist66" accel="1.078" maxSpeed="9.077" speedDev="0.000" speedFactor="4.000" vClass="bicycle">
            <param key="has.fcd.device" value="true"/>
        </vType>
        <vType id="vehDist67" accel="0.926" maxSpeed="8.002" speedDev="0.000" speedFactor="4.000" vClass="bicycle">
            <param key="has.fcd.device" value="true"/>
        </vType>
        <vType id="vehDist68" accel="0.815" maxSpeed="6.187" speedDev="0.000" speedFactor="4.000" vClass="bicycle">
            <param key="has.fcd.device" value="true"/>
        </vType>
        <vType id="vehDist69" accel="0.452" maxSpeed="8.186" speedDev="0.000" speedFactor="4.000" vClass="bicycle">
            <param key="has.fcd.device" value="true"/>
        </vType>
        <vType id="vehDist70" accel="1.045" maxSpeed="5.043" speedDev="0.000" speedFactor="4.000" vClass="bicycle">
            <param key="has.fcd.device" value="true"/>
        </vType>
        <vType id="vehDist71" accel="0.767" maxSpeed="9.915" speedDev="0.000" speedFactor="4.000" vClass="bicycle">
            <param key="has.fcd.device" value="true"/>
        </vType>
        <vType id="vehDist72" accel="0.465" maxSpeed="9.065" speedDev="0.000" speedFactor="4.000" vClass="bicycle">
            <param key="has.fcd.device" value="true"/>
        </vType>
        <vType id="vehDist73" accel="0.697" maxSpeed="9.343" speedDev="0.000" speedFactor="4.000" vClass="bicycle">
            <param key="has.fcd.device" value="true"/>
        </vType>
        <vType id="vehDist74" accel="0.729" maxSpeed="5.202" speedDev="0.000" speedFactor="4.000" vClass="bicycle">
            <param key="has.fcd.device" value="true"/>
        </vType>
        <vType id="vehDist75" accel="1.007" maxSpeed="7.362" speedDev="0.000" speedFactor="4.000" vClass="bicycle">
            <param key="has.fcd.device" value="true"/>
        </vType>
        <vType id="vehDist76" accel="0.656" maxSpeed="8.080" speedDev="0.000" speedFactor="4.000" vClass="bicycle">
            <param key="has.fcd.device" value="true"/>
        </vType>
        <vType id="vehDist77" accel="0.805" maxSpeed="5.643" speedDev="0.000" speedFactor="4.000" vClass="bicycle">
            <param key="has.fcd.device" value="true"/>
        </vType>
        <vType id="vehDist78" accel="0.613" maxSpeed="8.143" speedDev="0.000" speedFactor="4.000" vClass="bicycle">
            <param key="has.fcd.device" value="true"/>
        </vType>
        <vType id="vehDist79" accel="0.600" maxSpeed="6.816" speedDev="0.000" speedFactor="4.000" vClass="bicycle">
            <param key="has.fcd.device" value="true"/>
        </vType>
        <vType id="vehDist80" accel="0.614" maxSpeed="5.902" speedDev="0.000" speedFactor="4.000" vClass="bicycle">
            <param key="has.fcd.device" value="true"/>
        </vType>
        <vType id="vehDist81" accel="1.025" maxSpeed="8.267" speedDev="0.000" speedFactor="4.000" vClass="bicycle">
            <param key="has.fcd.device" value="true"/>
        </vType>
        <vType id="vehDist82" accel="0.781" maxSpeed="7.869" speedDev="0.000" speedFactor="4.000" vClass="bicycle">
            <param key="has.fcd.device" value="true"/>
        </vType>
        <vType id="vehDist83" accel="1.219" maxSpeed="8.036" speedDev="0.000" speedFactor="4.000" vClass="bicycle">
            <param key="has.fcd.device" value="true"/>
        </vType>
        <vType id="vehDist84" accel="0.656" maxSpeed="7.185" speedDev="0.000" speedFactor="4.000" vClass="bicycle">
            <param key="has.fcd.device" value="true"/>
        </vType>
        <vType id="vehDist85" accel="0.587" maxSpeed="5.270" speedDev="0.000" speedFactor="4.000" vClass="bicycle">
            <param key="has.fcd.device" value="true"/>
        </vType>
        <vType id="vehDist86" accel="0.479" maxSpeed="5.383" speedDev="0.000" speedFactor="4.000" vClass="bicycle">
            <param key="has.fcd.device" value="true"/>
        </vType>
        <vType id="vehDist87" accel="1.193" maxSpeed="8.818" speedDev="0.000" speedFactor="4.000" vClass="bicycle">
            <param key="has.fcd.device" value="true"/>
        </vType>
        <vType id="vehDist88" accel="0.675" maxSpeed="4.882" speedDev="0.000" speedFactor="4.000" vClass="bicycle">
            <param key="has.fcd.device" value="true"/>
        </vType>
        <vType id="vehDist89" accel="0.840" maxSpeed="6.535" speedDev="0.000" speedFactor="4.000" vClass="bicycle">
            <param key="has.fcd.device" value="true"/>
        </vType>
        <vType id="vehDist90" accel="0.690" maxSpeed="6.520" speedDev="0.000" speedFactor="4.000" vClass="bicycle">
            <param key="has.fcd.device" value="true"/>
        </vType>
        <vType id="vehDist91" accel="1.245" maxSpeed="6.234" speedDev="0.000" speedFactor="4.000" vClass="bicycle">
            <param key="has.fcd.device" value="true"/>
        </vType>
        <vType id="vehDist92" accel="1.014" maxSpeed="6.322" speedDev="0.000" speedFactor="4.000" vClass="bicycle">
            <param key="has.fcd.device" value="true"/>
        </vType>
        <vType id="vehDist93" accel="0.726" maxSpeed="7.011" speedDev="0.000" speedFactor="4.000" vClass="bicycle">
            <param key="has.fcd.device" value="true"/>
        </vType>
        <vType id="vehDist94" accel="0.837" maxSpeed="7.230" speedDev="0.000" speedFactor="4.000" vClass="bicycle">
            <param key="has.fcd.device" value="true"/>
        </vType>
        <vType id="vehDist95" accel="0.793" maxSpeed="5.942" speedDev="0.000" speedFactor="4.000" vClass="bicycle">
            <param key="has.fcd.device" value="true"/>
        </vType>
        <vType id="vehDist96" accel="0.833" maxSpeed="7.685" speedDev="0.000" speedFactor="4.000" vClass="bicycle">
            <param key="has.fcd.device" value="true"/>
        </vType>
        <vType id="vehDist97" accel="0.836" maxSpeed="7.660" speedDev="0.000" speedFactor="4.000" vClass="bicycle">
            <param key="has.fcd.device" value="true"/>
        </vType>
        <vType id="vehDist98" accel="1.179" maxSpeed="5.019" speedDev="0.000" speedFactor="4.000" vClass="bicycle">
            <param key="has.fcd.device" value="true"/>
        </vType>
        <vType id="vehDist99" accel="0.621" maxSpeed="6.513" speedDev="0.000" speedFactor="4.000" vClass="bicycle">
            <param key="has.fcd.device" value="true"/>
        </vType>
    </vTypeDistribution>


    <route edges="824274199#0 824274199#1 824274199#2 36920052#0 36920052#1 36920052#2 838658279 421557812#0 4686102#2 4686103" color="yellow" id="route_0"/>

    <flow id="flow_0" type="vehDist" begin="0.00" route="route_0" end="7200.00" number="180"/>
    
    
</routes>
