<?xml version="1.0" encoding="UTF-8"?>

<!-- generated on Di 16 Mär 2021 11:44:21 CET by Eclipse SUMO netedit Version v1_7_0+1228-0b1a97d77e
<configuration xmlns:xsi="http://www.w3.org/2001/XMLSchema-instance" xsi:noNamespaceSchemaLocation="http://sumo.dlr.de/xsd/netconvertConfiguration.xsd">

    <output>
        <output-file value="/home/kons/GIT/sumo/traci_test/traci_dummy.net.xml"/>
        <output.street-names value="true"/>
    </output>

    <processing>
        <offset.disable-normalization value="true"/>
    </processing>

    <junctions>
        <no-turnarounds value="true"/>
    </junctions>

    <netedit>
        <route-files value="/home/kons/GIT/sumo/traci_test/asd.rou.xml"/>
    </netedit>

    <report>
        <aggregate-warnings value="5"/>
    </report>

</configuration>
-->

<routes xmlns:xsi="http://www.w3.org/2001/XMLSchema-instance" xsi:noNamespaceSchemaLocation="http://sumo.dlr.de/xsd/routes_file.xsd">

    <vTypeDistribution id="vehDist">
        <vType id="vehDist0" accel="1.258" maxSpeed="6.733" decel="0.890" speedDev="0.000" speedFactor="4.000" tau="2.000" vClass="bicycle">
            <param key="has.fcd.device" value="true"/>
        </vType>
        <vType id="vehDist1" accel="1.099" maxSpeed="7.845" decel="0.929" speedDev="0.000" speedFactor="4.000" tau="2.000" vClass="bicycle">
            <param key="has.fcd.device" value="true"/>
        </vType>
        <vType id="vehDist2" accel="1.248" maxSpeed="7.466" decel="0.664" speedDev="0.000" speedFactor="4.000" tau="2.000" vClass="bicycle">
            <param key="has.fcd.device" value="true"/>
        </vType>
        <vType id="vehDist3" accel="1.038" maxSpeed="6.529" decel="0.923" speedDev="0.000" speedFactor="4.000" tau="2.000" vClass="bicycle">
            <param key="has.fcd.device" value="true"/>
        </vType>
        <vType id="vehDist4" accel="1.110" maxSpeed="6.509" decel="0.672" speedDev="0.000" speedFactor="4.000" tau="2.000" vClass="bicycle">
            <param key="has.fcd.device" value="true"/>
        </vType>
        <vType id="vehDist5" accel="0.921" maxSpeed="6.149" decel="0.848" speedDev="0.000" speedFactor="4.000" tau="2.000" vClass="bicycle">
            <param key="has.fcd.device" value="true"/>
        </vType>
        <vType id="vehDist6" accel="0.950" maxSpeed="7.776" decel="0.893" speedDev="0.000" speedFactor="4.000" tau="2.000" vClass="bicycle">
            <param key="has.fcd.device" value="true"/>
        </vType>
        <vType id="vehDist7" accel="1.139" maxSpeed="6.384" decel="0.975" speedDev="0.000" speedFactor="4.000" tau="2.000" vClass="bicycle">
            <param key="has.fcd.device" value="true"/>
        </vType>
        <vType id="vehDist8" accel="1.067" maxSpeed="6.264" decel="0.733" speedDev="0.000" speedFactor="4.000" tau="2.000" vClass="bicycle">
            <param key="has.fcd.device" value="true"/>
        </vType>
        <vType id="vehDist9" accel="1.165" maxSpeed="7.222" decel="1.065" speedDev="0.000" speedFactor="4.000" tau="2.000" vClass="bicycle">
            <param key="has.fcd.device" value="true"/>
        </vType>
        <vType id="vehDist10" accel="0.892" maxSpeed="6.899" decel="0.986" speedDev="0.000" speedFactor="4.000" tau="2.000" vClass="bicycle">
            <param key="has.fcd.device" value="true"/>
        </vType>
        <vType id="vehDist11" accel="0.699" maxSpeed="6.460" decel="0.986" speedDev="0.000" speedFactor="4.000" tau="2.000" vClass="bicycle">
            <param key="has.fcd.device" value="true"/>
        </vType>
        <vType id="vehDist12" accel="1.101" maxSpeed="7.477" decel="1.090" speedDev="0.000" speedFactor="4.000" tau="2.000" vClass="bicycle">
            <param key="has.fcd.device" value="true"/>
        </vType>
        <vType id="vehDist13" accel="0.820" maxSpeed="7.330" decel="0.924" speedDev="0.000" speedFactor="4.000" tau="2.000" vClass="bicycle">
            <param key="has.fcd.device" value="true"/>
        </vType>
        <vType id="vehDist14" accel="1.217" maxSpeed="6.296" decel="0.906" speedDev="0.000" speedFactor="4.000" tau="2.000" vClass="bicycle">
            <param key="has.fcd.device" value="true"/>
        </vType>
        <vType id="vehDist15" accel="0.615" maxSpeed="6.811" decel="0.805" speedDev="0.000" speedFactor="4.000" tau="2.000" vClass="bicycle">
            <param key="has.fcd.device" value="true"/>
        </vType>
        <vType id="vehDist16" accel="0.892" maxSpeed="6.507" decel="0.858" speedDev="0.000" speedFactor="4.000" tau="2.000" vClass="bicycle">
            <param key="has.fcd.device" value="true"/>
        </vType>
        <vType id="vehDist17" accel="0.944" maxSpeed="7.000" decel="1.149" speedDev="0.000" speedFactor="4.000" tau="2.000" vClass="bicycle">
            <param key="has.fcd.device" value="true"/>
        </vType>
        <vType id="vehDist18" accel="1.160" maxSpeed="6.484" decel="0.807" speedDev="0.000" speedFactor="4.000" tau="2.000" vClass="bicycle">
            <param key="has.fcd.device" value="true"/>
        </vType>
        <vType id="vehDist19" accel="0.798" maxSpeed="5.927" decel="0.866" speedDev="0.000" speedFactor="4.000" tau="2.000" vClass="bicycle">
            <param key="has.fcd.device" value="true"/>
        </vType>
        <vType id="vehDist20" accel="0.942" maxSpeed="6.097" decel="1.100" speedDev="0.000" speedFactor="4.000" tau="2.000" vClass="bicycle">
            <param key="has.fcd.device" value="true"/>
        </vType>
        <vType id="vehDist21" accel="0.913" maxSpeed="7.061" decel="0.988" speedDev="0.000" speedFactor="4.000" tau="2.000" vClass="bicycle">
            <param key="has.fcd.device" value="true"/>
        </vType>
        <vType id="vehDist22" accel="0.844" maxSpeed="5.602" decel="0.754" speedDev="0.000" speedFactor="4.000" tau="2.000" vClass="bicycle">
            <param key="has.fcd.device" value="true"/>
        </vType>
        <vType id="vehDist23" accel="0.808" maxSpeed="6.239" decel="0.804" speedDev="0.000" speedFactor="4.000" tau="2.000" vClass="bicycle">
            <param key="has.fcd.device" value="true"/>
        </vType>
        <vType id="vehDist24" accel="0.756" maxSpeed="6.146" decel="0.558" speedDev="0.000" speedFactor="4.000" tau="2.000" vClass="bicycle">
            <param key="has.fcd.device" value="true"/>
        </vType>
        <vType id="vehDist25" accel="1.094" maxSpeed="5.999" decel="0.964" speedDev="0.000" speedFactor="4.000" tau="2.000" vClass="bicycle">
            <param key="has.fcd.device" value="true"/>
        </vType>
        <vType id="vehDist26" accel="0.658" maxSpeed="7.216" decel="1.116" speedDev="0.000" speedFactor="4.000" tau="2.000" vClass="bicycle">
            <param key="has.fcd.device" value="true"/>
        </vType>
        <vType id="vehDist27" accel="0.890" maxSpeed="7.675" decel="0.948" speedDev="0.000" speedFactor="4.000" tau="2.000" vClass="bicycle">
            <param key="has.fcd.device" value="true"/>
        </vType>
        <vType id="vehDist28" accel="1.209" maxSpeed="8.423" decel="1.001" speedDev="0.000" speedFactor="4.000" tau="2.000" vClass="bicycle">
            <param key="has.fcd.device" value="true"/>
        </vType>
        <vType id="vehDist29" accel="1.001" maxSpeed="6.143" decel="0.838" speedDev="0.000" speedFactor="4.000" tau="2.000" vClass="bicycle">
            <param key="has.fcd.device" value="true"/>
        </vType>
        <vType id="vehDist30" accel="0.924" maxSpeed="6.592" decel="0.910" speedDev="0.000" speedFactor="4.000" tau="2.000" vClass="bicycle">
            <param key="has.fcd.device" value="true"/>
        </vType>
        <vType id="vehDist31" accel="0.878" maxSpeed="6.456" decel="0.963" speedDev="0.000" speedFactor="4.000" tau="2.000" vClass="bicycle">
            <param key="has.fcd.device" value="true"/>
        </vType>
        <vType id="vehDist32" accel="0.986" maxSpeed="6.707" decel="0.912" speedDev="0.000" speedFactor="4.000" tau="2.000" vClass="bicycle">
            <param key="has.fcd.device" value="true"/>
        </vType>
        <vType id="vehDist33" accel="1.130" maxSpeed="6.296" decel="0.695" speedDev="0.000" speedFactor="4.000" tau="2.000" vClass="bicycle">
            <param key="has.fcd.device" value="true"/>
        </vType>
        <vType id="vehDist34" accel="0.821" maxSpeed="6.777" decel="0.864" speedDev="0.000" speedFactor="4.000" tau="2.000" vClass="bicycle">
            <param key="has.fcd.device" value="true"/>
        </vType>
        <vType id="vehDist35" accel="1.334" maxSpeed="6.962" decel="0.616" speedDev="0.000" speedFactor="4.000" tau="2.000" vClass="bicycle">
            <param key="has.fcd.device" value="true"/>
        </vType>
        <vType id="vehDist36" accel="1.004" maxSpeed="5.489" decel="1.172" speedDev="0.000" speedFactor="4.000" tau="2.000" vClass="bicycle">
            <param key="has.fcd.device" value="true"/>
        </vType>
        <vType id="vehDist37" accel="0.708" maxSpeed="8.191" decel="0.988" speedDev="0.000" speedFactor="4.000" tau="2.000" vClass="bicycle">
            <param key="has.fcd.device" value="true"/>
        </vType>
        <vType id="vehDist38" accel="1.179" maxSpeed="6.877" decel="0.920" speedDev="0.000" speedFactor="4.000" tau="2.000" vClass="bicycle">
            <param key="has.fcd.device" value="true"/>
        </vType>
        <vType id="vehDist39" accel="1.012" maxSpeed="6.537" decel="0.969" speedDev="0.000" speedFactor="4.000" tau="2.000" vClass="bicycle">
            <param key="has.fcd.device" value="true"/>
        </vType>
        <vType id="vehDist40" accel="0.839" maxSpeed="6.901" decel="0.786" speedDev="0.000" speedFactor="4.000" tau="2.000" vClass="bicycle">
            <param key="has.fcd.device" value="true"/>
        </vType>
        <vType id="vehDist41" accel="1.004" maxSpeed="6.067" decel="1.044" speedDev="0.000" speedFactor="4.000" tau="2.000" vClass="bicycle">
            <param key="has.fcd.device" value="true"/>
        </vType>
        <vType id="vehDist42" accel="0.845" maxSpeed="6.311" decel="1.306" speedDev="0.000" speedFactor="4.000" tau="2.000" vClass="bicycle">
            <param key="has.fcd.device" value="true"/>
        </vType>
        <vType id="vehDist43" accel="1.136" maxSpeed="5.777" decel="1.290" speedDev="0.000" speedFactor="4.000" tau="2.000" vClass="bicycle">
            <param key="has.fcd.device" value="true"/>
        </vType>
        <vType id="vehDist44" accel="0.953" maxSpeed="7.768" decel="0.966" speedDev="0.000" speedFactor="4.000" tau="2.000" vClass="bicycle">
            <param key="has.fcd.device" value="true"/>
        </vType>
        <vType id="vehDist45" accel="0.960" maxSpeed="6.366" decel="0.787" speedDev="0.000" speedFactor="4.000" tau="2.000" vClass="bicycle">
            <param key="has.fcd.device" value="true"/>
        </vType>
        <vType id="vehDist46" accel="0.863" maxSpeed="6.888" decel="0.960" speedDev="0.000" speedFactor="4.000" tau="2.000" vClass="bicycle">
            <param key="has.fcd.device" value="true"/>
        </vType>
        <vType id="vehDist47" accel="1.016" maxSpeed="6.902" decel="1.323" speedDev="0.000" speedFactor="4.000" tau="2.000" vClass="bicycle">
            <param key="has.fcd.device" value="true"/>
        </vType>
        <vType id="vehDist48" accel="0.874" maxSpeed="5.882" decel="0.844" speedDev="0.000" speedFactor="4.000" tau="2.000" vClass="bicycle">
            <param key="has.fcd.device" value="true"/>
        </vType>
        <vType id="vehDist49" accel="0.935" maxSpeed="6.025" decel="0.959" speedDev="0.000" speedFactor="4.000" tau="2.000" vClass="bicycle">
            <param key="has.fcd.device" value="true"/>
        </vType>
        <vType id="vehDist50" accel="0.764" maxSpeed="6.528" decel="0.780" speedDev="0.000" speedFactor="4.000" tau="2.000" vClass="bicycle">
            <param key="has.fcd.device" value="true"/>
        </vType>
        <vType id="vehDist51" accel="0.919" maxSpeed="6.573" decel="0.774" speedDev="0.000" speedFactor="4.000" tau="2.000" vClass="bicycle">
            <param key="has.fcd.device" value="true"/>
        </vType>
        <vType id="vehDist52" accel="1.004" maxSpeed="6.809" decel="0.486" speedDev="0.000" speedFactor="4.000" tau="2.000" vClass="bicycle">
            <param key="has.fcd.device" value="true"/>
        </vType>
        <vType id="vehDist53" accel="1.133" maxSpeed="6.002" decel="0.778" speedDev="0.000" speedFactor="4.000" tau="2.000" vClass="bicycle">
            <param key="has.fcd.device" value="true"/>
        </vType>
        <vType id="vehDist54" accel="1.137" maxSpeed="5.870" decel="0.631" speedDev="0.000" speedFactor="4.000" tau="2.000" vClass="bicycle">
            <param key="has.fcd.device" value="true"/>
        </vType>
        <vType id="vehDist55" accel="0.827" maxSpeed="7.394" decel="0.696" speedDev="0.000" speedFactor="4.000" tau="2.000" vClass="bicycle">
            <param key="has.fcd.device" value="true"/>
        </vType>
        <vType id="vehDist56" accel="1.186" maxSpeed="6.048" decel="0.784" speedDev="0.000" speedFactor="4.000" tau="2.000" vClass="bicycle">
            <param key="has.fcd.device" value="true"/>
        </vType>
        <vType id="vehDist57" accel="1.059" maxSpeed="6.713" decel="0.834" speedDev="0.000" speedFactor="4.000" tau="2.000" vClass="bicycle">
            <param key="has.fcd.device" value="true"/>
        </vType>
        <vType id="vehDist58" accel="0.715" maxSpeed="6.301" decel="1.181" speedDev="0.000" speedFactor="4.000" tau="2.000" vClass="bicycle">
            <param key="has.fcd.device" value="true"/>
        </vType>
        <vType id="vehDist59" accel="1.027" maxSpeed="6.897" decel="0.556" speedDev="0.000" speedFactor="4.000" tau="2.000" vClass="bicycle">
            <param key="has.fcd.device" value="true"/>
        </vType>
        <vType id="vehDist60" accel="0.782" maxSpeed="6.486" decel="0.788" speedDev="0.000" speedFactor="4.000" tau="2.000" vClass="bicycle">
            <param key="has.fcd.device" value="true"/>
        </vType>
        <vType id="vehDist61" accel="1.199" maxSpeed="6.702" decel="1.178" speedDev="0.000" speedFactor="4.000" tau="2.000" vClass="bicycle">
            <param key="has.fcd.device" value="true"/>
        </vType>
        <vType id="vehDist62" accel="0.906" maxSpeed="6.111" decel="0.835" speedDev="0.000" speedFactor="4.000" tau="2.000" vClass="bicycle">
            <param key="has.fcd.device" value="true"/>
        </vType>
        <vType id="vehDist63" accel="1.145" maxSpeed="6.511" decel="0.941" speedDev="0.000" speedFactor="4.000" tau="2.000" vClass="bicycle">
            <param key="has.fcd.device" value="true"/>
        </vType>
        <vType id="vehDist64" accel="0.776" maxSpeed="6.729" decel="0.979" speedDev="0.000" speedFactor="4.000" tau="2.000" vClass="bicycle">
            <param key="has.fcd.device" value="true"/>
        </vType>
        <vType id="vehDist65" accel="1.106" maxSpeed="8.446" decel="1.053" speedDev="0.000" speedFactor="4.000" tau="2.000" vClass="bicycle">
            <param key="has.fcd.device" value="true"/>
        </vType>
        <vType id="vehDist66" accel="0.815" maxSpeed="7.263" decel="0.798" speedDev="0.000" speedFactor="4.000" tau="2.000" vClass="bicycle">
            <param key="has.fcd.device" value="true"/>
        </vType>
        <vType id="vehDist67" accel="0.653" maxSpeed="7.167" decel="1.279" speedDev="0.000" speedFactor="4.000" tau="2.000" vClass="bicycle">
            <param key="has.fcd.device" value="true"/>
        </vType>
        <vType id="vehDist68" accel="0.990" maxSpeed="7.667" decel="0.949" speedDev="0.000" speedFactor="4.000" tau="2.000" vClass="bicycle">
            <param key="has.fcd.device" value="true"/>
        </vType>
        <vType id="vehDist69" accel="1.001" maxSpeed="6.421" decel="0.960" speedDev="0.000" speedFactor="4.000" tau="2.000" vClass="bicycle">
            <param key="has.fcd.device" value="true"/>
        </vType>
        <vType id="vehDist70" accel="1.309" maxSpeed="5.954" decel="0.510" speedDev="0.000" speedFactor="4.000" tau="2.000" vClass="bicycle">
            <param key="has.fcd.device" value="true"/>
        </vType>
        <vType id="vehDist71" accel="0.632" maxSpeed="7.521" decel="0.769" speedDev="0.000" speedFactor="4.000" tau="2.000" vClass="bicycle">
            <param key="has.fcd.device" value="true"/>
        </vType>
        <vType id="vehDist72" accel="1.032" maxSpeed="6.658" decel="0.540" speedDev="0.000" speedFactor="4.000" tau="2.000" vClass="bicycle">
            <param key="has.fcd.device" value="true"/>
        </vType>
        <vType id="vehDist73" accel="0.978" maxSpeed="6.877" decel="0.987" speedDev="0.000" speedFactor="4.000" tau="2.000" vClass="bicycle">
            <param key="has.fcd.device" value="true"/>
        </vType>
        <vType id="vehDist74" accel="0.892" maxSpeed="7.553" decel="1.290" speedDev="0.000" speedFactor="4.000" tau="2.000" vClass="bicycle">
            <param key="has.fcd.device" value="true"/>
        </vType>
        <vType id="vehDist75" accel="1.190" maxSpeed="6.049" decel="1.032" speedDev="0.000" speedFactor="4.000" tau="2.000" vClass="bicycle">
            <param key="has.fcd.device" value="true"/>
        </vType>
        <vType id="vehDist76" accel="0.838" maxSpeed="6.174" decel="1.125" speedDev="0.000" speedFactor="4.000" tau="2.000" vClass="bicycle">
            <param key="has.fcd.device" value="true"/>
        </vType>
        <vType id="vehDist77" accel="0.701" maxSpeed="6.149" decel="0.585" speedDev="0.000" speedFactor="4.000" tau="2.000" vClass="bicycle">
            <param key="has.fcd.device" value="true"/>
        </vType>
        <vType id="vehDist78" accel="1.003" maxSpeed="8.042" decel="0.514" speedDev="0.000" speedFactor="4.000" tau="2.000" vClass="bicycle">
            <param key="has.fcd.device" value="true"/>
        </vType>
        <vType id="vehDist79" accel="0.699" maxSpeed="6.474" decel="0.810" speedDev="0.000" speedFactor="4.000" tau="2.000" vClass="bicycle">
            <param key="has.fcd.device" value="true"/>
        </vType>
        <vType id="vehDist80" accel="0.981" maxSpeed="7.958" decel="1.048" speedDev="0.000" speedFactor="4.000" tau="2.000" vClass="bicycle">
            <param key="has.fcd.device" value="true"/>
        </vType>
        <vType id="vehDist81" accel="0.891" maxSpeed="6.289" decel="1.018" speedDev="0.000" speedFactor="4.000" tau="2.000" vClass="bicycle">
            <param key="has.fcd.device" value="true"/>
        </vType>
        <vType id="vehDist82" accel="1.075" maxSpeed="6.263" decel="1.145" speedDev="0.000" speedFactor="4.000" tau="2.000" vClass="bicycle">
            <param key="has.fcd.device" value="true"/>
        </vType>
        <vType id="vehDist83" accel="0.906" maxSpeed="6.189" decel="0.858" speedDev="0.000" speedFactor="4.000" tau="2.000" vClass="bicycle">
            <param key="has.fcd.device" value="true"/>
        </vType>
        <vType id="vehDist84" accel="1.102" maxSpeed="6.768" decel="0.875" speedDev="0.000" speedFactor="4.000" tau="2.000" vClass="bicycle">
            <param key="has.fcd.device" value="true"/>
        </vType>
        <vType id="vehDist85" accel="1.252" maxSpeed="7.525" decel="0.965" speedDev="0.000" speedFactor="4.000" tau="2.000" vClass="bicycle">
            <param key="has.fcd.device" value="true"/>
        </vType>
        <vType id="vehDist86" accel="1.195" maxSpeed="6.169" decel="1.041" speedDev="0.000" speedFactor="4.000" tau="2.000" vClass="bicycle">
            <param key="has.fcd.device" value="true"/>
        </vType>
        <vType id="vehDist87" accel="0.779" maxSpeed="6.525" decel="0.958" speedDev="0.000" speedFactor="4.000" tau="2.000" vClass="bicycle">
            <param key="has.fcd.device" value="true"/>
        </vType>
        <vType id="vehDist88" accel="1.206" maxSpeed="7.888" decel="1.007" speedDev="0.000" speedFactor="4.000" tau="2.000" vClass="bicycle">
            <param key="has.fcd.device" value="true"/>
        </vType>
        <vType id="vehDist89" accel="0.868" maxSpeed="5.595" decel="0.657" speedDev="0.000" speedFactor="4.000" tau="2.000" vClass="bicycle">
            <param key="has.fcd.device" value="true"/>
        </vType>
        <vType id="vehDist90" accel="0.738" maxSpeed="5.549" decel="0.888" speedDev="0.000" speedFactor="4.000" tau="2.000" vClass="bicycle">
            <param key="has.fcd.device" value="true"/>
        </vType>
        <vType id="vehDist91" accel="0.763" maxSpeed="6.333" decel="0.759" speedDev="0.000" speedFactor="4.000" tau="2.000" vClass="bicycle">
            <param key="has.fcd.device" value="true"/>
        </vType>
        <vType id="vehDist92" accel="1.073" maxSpeed="5.633" decel="0.535" speedDev="0.000" speedFactor="4.000" tau="2.000" vClass="bicycle">
            <param key="has.fcd.device" value="true"/>
        </vType>
        <vType id="vehDist93" accel="0.644" maxSpeed="7.230" decel="0.797" speedDev="0.000" speedFactor="4.000" tau="2.000" vClass="bicycle">
            <param key="has.fcd.device" value="true"/>
        </vType>
        <vType id="vehDist94" accel="0.855" maxSpeed="6.794" decel="0.912" speedDev="0.000" speedFactor="4.000" tau="2.000" vClass="bicycle">
            <param key="has.fcd.device" value="true"/>
        </vType>
        <vType id="vehDist95" accel="1.331" maxSpeed="7.100" decel="0.850" speedDev="0.000" speedFactor="4.000" tau="2.000" vClass="bicycle">
            <param key="has.fcd.device" value="true"/>
        </vType>
        <vType id="vehDist96" accel="1.105" maxSpeed="7.788" decel="0.800" speedDev="0.000" speedFactor="4.000" tau="2.000" vClass="bicycle">
            <param key="has.fcd.device" value="true"/>
        </vType>
        <vType id="vehDist97" accel="0.634" maxSpeed="8.406" decel="1.175" speedDev="0.000" speedFactor="4.000" tau="2.000" vClass="bicycle">
            <param key="has.fcd.device" value="true"/>
        </vType>
        <vType id="vehDist98" accel="1.078" maxSpeed="6.869" decel="1.166" speedDev="0.000" speedFactor="4.000" tau="2.000" vClass="bicycle">
            <param key="has.fcd.device" value="true"/>
        </vType>
        <vType id="vehDist99" accel="0.884" maxSpeed="8.441" decel="1.245" speedDev="0.000" speedFactor="4.000" tau="2.000" vClass="bicycle">
            <param key="has.fcd.device" value="true"/>
        </vType>
    </vTypeDistribution>


    <route edges="824274199#0 824274199#1 824274199#2 36920052#0 36920052#1 36920052#2 838658279 421557812#0 4686102#2 4686103" color="yellow" id="route_0"/>

    <flow id="flow_0" type="vehDist" begin="0.00" route="route_0" end="7200.00" number="180"/>
    
    
</routes>
