<?xml version="1.0" encoding="UTF-8"?>

<!-- generated on 2023-01-24 22:41:32 by Eclipse SUMO netedit Version v1_15_0+1833-50889087cf5
-->

<routes xmlns:xsi="http://www.w3.org/2001/XMLSchema-instance" xsi:noNamespaceSchemaLocation="http://sumo.dlr.de/xsd/routes_file.xsd">
    <!-- Routes -->
    <route id="route_0" edges="24540242#1 188044903#0 188044903#1 47016365#1 301241483#0 301241483#1 301241483#2 301241483#3 728838409#0" color="yellow"/>
    <route id="route_1" edges="24540242#1 188044903#0 188044903#1 19801618#1 19801618#2 19801618#3 19801618#4" color="yellow"/>
    <!-- Vehicles, persons and containers (sorted by depart) -->
    <flow id="f_0" begin="0.00" from="47059460" to="66311468" end="8000.00" number="100"/>
    <flow id="f_1" begin="0.00" from="47059460" to="47016365#1" end="8000.00" number="100"/>
    <flow id="f_2" begin="0.00" from="24540242#1" to="280667682" end="8000.00" number="100"/>
    <flow id="f_3" begin="0.00" from="24540242#1" to="728838409#0" end="8000.00" number="100"/>
    <flow id="f_4" begin="0.00" from="24540242#1" to="19801618#1" end="8000.00" number="100"/>
    <flow id="f_5" begin="0.00" from="163368988#2" to="19801618#1" end="8000.00" number="100"/>
    <flow id="f_6" begin="0.00" from="163368988#2" to="280667682" end="8000.00" number="100"/>
</routes>
