<configuration>
    <input>    
        <net-file value="osm.net.xml"/>
        <route-files value="bismarck.trips.xml"/>
    </input>
    <time>
        <begin value="0"/>
        <end value="8000"/>
    </time>
</configuration>
