<?xml version="1.0" encoding="UTF-8"?>

<!-- generated on Di 04 Mai 2021 15:53:48 CEST by Eclipse SUMO netedit Version v1_7_0+1228-0b1a97d77e
<configuration xmlns:xsi="http://www.w3.org/2001/XMLSchema-instance" xsi:noNamespaceSchemaLocation="http://sumo.dlr.de/xsd/netconvertConfiguration.xsd">

    <input>
        <sumo-net-file value="/home/kons/GIT/sumo/bismarck_traci/osm.net.xml"/>
    </input>

    <output>
        <output-file value="/home/kons/GIT/sumo/bismarck_traci/osm.net.xml"/>
    </output>

    <processing>
        <geometry.min-radius.fix.railways value="false"/>
        <geometry.max-grade.fix value="false"/>
        <offset.disable-normalization value="true"/>
        <lefthand value="false"/>
    </processing>

    <junctions>
        <no-turnarounds value="true"/>
        <junctions.corner-detail value="5"/>
        <junctions.limit-turn-speed value="5.5"/>
        <rectangular-lane-cut value="false"/>
    </junctions>

    <pedestrian>
        <walkingareas value="false"/>
    </pedestrian>

    <netedit>
        <route-files value="/home/kons/GIT/sumo/bismarck_traci/routes.rou.xml"/>
    </netedit>

    <report>
        <aggregate-warnings value="5"/>
    </report>

</configuration>
-->

<net version="1.6" junctionCornerDetail="5" limitTurnSpeed="5.50" xmlns:xsi="http://www.w3.org/2001/XMLSchema-instance" xsi:noNamespaceSchemaLocation="http://sumo.dlr.de/xsd/net_file.xsd">

    <location netOffset="-385034.44,-5818097.61" convBoundary="465.44,795.75,999.13,1552.30" origBoundary="13.305909,52.501000,13.335429,52.520621" projParameter="+proj=utm +zone=33 +ellps=WGS84 +datum=WGS84 +units=m +no_defs"/>

    <type id="highway.bridleway" priority="1" numLanes="1" speed="2.78" allow="pedestrian" oneway="1" width="2.00"/>
    <type id="highway.bus_guideway" priority="1" numLanes="1" speed="27.78" allow="bus" oneway="1"/>
    <type id="highway.cycleway" priority="1" numLanes="1" speed="8.33" allow="bicycle" oneway="0" width="1.00"/>
    <type id="highway.footway" priority="1" numLanes="1" speed="2.78" allow="pedestrian" oneway="1" width="2.00"/>
    <type id="highway.ford" priority="1" numLanes="1" speed="2.78" allow="army" oneway="0"/>
    <type id="highway.living_street" priority="2" numLanes="1" speed="2.78" disallow="tram rail_urban rail rail_electric rail_fast ship" oneway="0"/>
    <type id="highway.motorway" priority="14" numLanes="2" speed="39.44" allow="private emergency authority army vip passenger hov taxi bus coach delivery truck trailer motorcycle evehicle custom1 custom2" oneway="1"/>
    <type id="highway.motorway_link" priority="9" numLanes="1" speed="22.22" allow="private emergency authority army vip passenger hov taxi bus coach delivery truck trailer motorcycle evehicle custom1 custom2" oneway="1"/>
    <type id="highway.path" priority="1" numLanes="1" speed="2.78" allow="pedestrian bicycle" oneway="0" width="2.00"/>
    <type id="highway.pedestrian" priority="1" numLanes="1" speed="2.78" allow="pedestrian" oneway="1" width="2.00"/>
    <type id="highway.primary" priority="12" numLanes="2" speed="27.78" disallow="tram rail_urban rail rail_electric rail_fast ship" oneway="0"/>
    <type id="highway.primary_link" priority="7" numLanes="1" speed="22.22" disallow="tram rail_urban rail rail_electric rail_fast ship" oneway="0"/>
    <type id="highway.raceway" priority="15" numLanes="2" speed="83.33" allow="vip" oneway="0"/>
    <type id="highway.residential" priority="3" numLanes="1" speed="13.89" disallow="tram rail_urban rail rail_electric rail_fast ship" oneway="0"/>
    <type id="highway.secondary" priority="11" numLanes="1" speed="27.78" disallow="tram rail_urban rail rail_electric rail_fast ship" oneway="0"/>
    <type id="highway.secondary_link" priority="6" numLanes="1" speed="22.22" disallow="tram rail_urban rail rail_electric rail_fast ship" oneway="0"/>
    <type id="highway.service" priority="1" numLanes="1" speed="5.56" allow="pedestrian delivery bicycle" oneway="0"/>
    <type id="highway.stairs" priority="1" numLanes="1" speed="1.39" allow="pedestrian" oneway="1" width="2.00"/>
    <type id="highway.step" priority="1" numLanes="1" speed="1.39" allow="pedestrian" oneway="1" width="2.00"/>
    <type id="highway.steps" priority="1" numLanes="1" speed="1.39" allow="pedestrian" oneway="1" width="2.00"/>
    <type id="highway.tertiary" priority="10" numLanes="1" speed="22.22" disallow="tram rail_urban rail rail_electric rail_fast ship" oneway="0"/>
    <type id="highway.tertiary_link" priority="5" numLanes="1" speed="22.22" disallow="tram rail_urban rail rail_electric rail_fast ship" oneway="0"/>
    <type id="highway.track" priority="1" numLanes="1" speed="5.56" allow="pedestrian motorcycle moped bicycle" oneway="0"/>
    <type id="highway.trunk" priority="13" numLanes="2" speed="27.78" disallow="pedestrian bicycle tram rail_urban rail rail_electric rail_fast ship" oneway="0"/>
    <type id="highway.trunk_link" priority="8" numLanes="1" speed="22.22" disallow="pedestrian bicycle tram rail_urban rail rail_electric rail_fast ship" oneway="0"/>
    <type id="highway.unclassified" priority="4" numLanes="1" speed="13.89" disallow="tram rail_urban rail rail_electric rail_fast ship" oneway="0"/>
    <type id="highway.unsurfaced" priority="1" numLanes="1" speed="8.33" disallow="tram rail_urban rail rail_electric rail_fast ship" oneway="0"/>
    <type id="railway.highspeed" priority="21" numLanes="1" speed="69.44" allow="rail_fast" oneway="1"/>
    <type id="railway.light_rail" priority="19" numLanes="1" speed="27.78" allow="rail_urban" oneway="1"/>
    <type id="railway.preserved" priority="16" numLanes="1" speed="27.78" allow="rail" oneway="1"/>
    <type id="railway.rail" priority="20" numLanes="1" speed="44.44" allow="rail" oneway="1"/>
    <type id="railway.subway" priority="18" numLanes="1" speed="27.78" allow="rail_urban" oneway="1"/>
    <type id="railway.tram" priority="17" numLanes="1" speed="13.89" allow="tram" oneway="1"/>

    <edge id=":1023499920_0" function="internal">
        <lane id=":1023499920_0_0" index="0" allow="bicycle" speed="13.89" length="0.47" width="1.00" shape="821.20,1414.98 821.75,1414.80"/>
        <lane id=":1023499920_0_1" index="1" disallow="bicycle tram rail_urban rail rail_electric rail_fast ship" speed="13.89" length="0.47" shape="821.90,1416.96 822.36,1416.81"/>
        <lane id=":1023499920_0_2" index="2" disallow="bicycle tram rail_urban rail rail_electric rail_fast ship" speed="13.89" length="0.47" shape="822.97,1419.98 823.29,1419.87"/>
    </edge>
    <edge id=":1321335395_0" function="internal">
        <lane id=":1321335395_0_0" index="0" allow="bicycle" speed="13.89" length="0.28" width="1.00" shape="585.05,1109.87 585.02,1109.59"/>
        <lane id=":1321335395_0_1" index="1" disallow="bicycle tram rail_urban rail rail_electric rail_fast ship" speed="13.89" length="0.28" shape="587.14,1109.62 587.10,1109.34"/>
    </edge>
    <edge id=":1321335395_2" function="internal">
        <lane id=":1321335395_2_0" index="0" allow="bicycle" speed="13.89" length="0.31" width="1.00" shape="592.36,1108.69 592.40,1109.01"/>
        <lane id=":1321335395_2_1" index="1" disallow="bicycle tram rail_urban rail rail_electric rail_fast ship" speed="13.89" length="0.31" shape="590.28,1108.95 590.32,1109.25"/>
    </edge>
    <edge id=":1749584806_0" function="internal">
        <lane id=":1749584806_0_0" index="0" allow="bicycle" speed="8.33" length="0.39" width="1.00" shape="960.29,856.73 960.10,857.13"/>
        <lane id=":1749584806_0_1" index="1" disallow="bicycle tram rail_urban rail rail_electric rail_fast ship" speed="8.33" length="0.39" shape="958.38,855.86 958.23,856.17"/>
    </edge>
    <edge id=":1749584806_2" function="internal">
        <lane id=":1749584806_2_0" index="0" allow="bicycle" speed="8.33" length="0.14" width="1.00" shape="953.52,853.75 953.56,853.67"/>
        <lane id=":1749584806_2_1" index="1" disallow="bicycle tram rail_urban rail rail_electric rail_fast ship" speed="8.33" length="0.14" shape="955.39,854.71 955.47,854.54"/>
    </edge>
    <edge id=":1749584808_0" function="internal">
        <lane id=":1749584808_0_0" index="0" allow="bicycle" speed="8.33" length="0.23" width="1.00" shape="974.57,874.92 974.36,874.94"/>
        <lane id=":1749584808_0_1" index="1" disallow="bicycle tram rail_urban rail rail_electric rail_fast ship" speed="8.33" length="0.23" shape="974.36,872.83 974.11,872.86"/>
    </edge>
    <edge id=":1749584808_2" function="internal">
        <lane id=":1749584808_2_0" index="0" allow="bicycle" speed="8.33" length="0.33" width="1.00" shape="973.48,867.59 973.83,867.55"/>
        <lane id=":1749584808_2_1" index="1" disallow="bicycle tram rail_urban rail rail_electric rail_fast ship" speed="8.33" length="0.33" shape="973.73,869.68 974.04,869.64"/>
    </edge>
    <edge id=":1757441427_0" function="internal">
        <lane id=":1757441427_0_0" index="0" allow="bicycle" speed="13.89" length="8.19" width="1.00" shape="852.91,1429.56 850.69,1430.42 849.31,1431.36 847.93,1432.32 845.72,1433.22"/>
        <lane id=":1757441427_0_1" index="1" disallow="bicycle tram rail_urban rail rail_electric rail_fast ship" speed="13.89" length="8.19" shape="852.37,1427.53 850.13,1428.39 848.74,1429.34 847.36,1430.30 845.14,1431.20"/>
        <lane id=":1757441427_0_2" index="2" disallow="bicycle tram rail_urban rail rail_electric rail_fast ship" speed="13.89" length="8.19" shape="851.53,1424.44 849.28,1425.31 847.88,1426.26 846.49,1427.22 844.25,1428.13"/>
        <lane id=":1757441427_0_3" index="3" disallow="bicycle tram rail_urban rail rail_electric rail_fast ship" speed="13.89" length="8.19" shape="851.53,1424.44 849.14,1424.83 847.44,1424.72 845.74,1424.63 843.36,1425.05"/>
    </edge>
    <edge id=":1932523033_0" function="internal">
        <lane id=":1932523033_0_0" index="0" allow="bicycle" speed="8.33" length="0.27" width="1.00" shape="800.19,1192.47 800.08,1192.70"/>
        <lane id=":1932523033_0_1" index="1" disallow="bicycle tram rail_urban rail rail_electric rail_fast ship" speed="8.33" length="0.27" shape="798.30,1191.55 798.18,1191.80"/>
    </edge>
    <edge id=":1932523033_2" function="internal">
        <lane id=":1932523033_2_0" index="0" disallow="bicycle tram rail_urban rail rail_electric rail_fast ship" speed="3.65" length="4.67" shape="798.30,1191.55 797.06,1192.28 796.16,1192.29 795.62,1191.58 795.43,1190.15"/>
    </edge>
    <edge id=":1932523033_3" function="internal">
        <lane id=":1932523033_3_0" index="0" allow="bicycle" speed="8.33" length="0.32" width="1.00" shape="793.39,1189.52 793.54,1189.23"/>
        <lane id=":1932523033_3_1" index="1" disallow="bicycle tram rail_urban rail rail_electric rail_fast ship" speed="8.33" length="0.32" shape="795.29,1190.43 795.43,1190.15"/>
    </edge>
    <edge id=":1932523033_5" function="internal">
        <lane id=":1932523033_5_0" index="0" disallow="bicycle tram rail_urban rail rail_electric rail_fast ship" speed="3.65" length="4.67" shape="795.29,1190.43 796.53,1189.69 797.42,1189.67 797.97,1190.37 798.18,1191.80"/>
    </edge>
    <edge id=":1932523062_0" function="internal">
        <lane id=":1932523062_0_0" index="0" allow="bicycle" speed="13.89" length="0.30" width="1.00" shape="852.79,1241.34 853.06,1241.36"/>
        <lane id=":1932523062_0_1" index="1" disallow="bicycle tram rail_urban rail rail_electric rail_fast ship" speed="13.89" length="0.30" shape="852.61,1243.43 852.89,1243.46"/>
        <lane id=":1932523062_0_2" index="2" disallow="bicycle tram rail_urban rail rail_electric rail_fast ship" speed="13.89" length="0.30" shape="852.34,1246.62 852.63,1246.65"/>
        <lane id=":1932523062_0_3" index="3" disallow="bicycle tram rail_urban rail rail_electric rail_fast ship" speed="13.89" length="0.30" shape="852.06,1249.81 852.37,1249.84"/>
        <lane id=":1932523062_0_4" index="4" disallow="bicycle tram rail_urban rail rail_electric rail_fast ship" speed="13.89" length="0.30" shape="851.79,1253.00 852.11,1253.02"/>
    </edge>
    <edge id=":1966956981_0" function="internal">
        <lane id=":1966956981_0_0" index="0" allow="bicycle" speed="8.33" length="0.32" width="1.00" shape="759.70,1392.08 759.57,1391.78"/>
        <lane id=":1966956981_0_1" index="1" disallow="bicycle tram rail_urban rail rail_electric rail_fast ship" speed="8.33" length="0.32" shape="761.62,1391.24 761.50,1390.95"/>
    </edge>
    <edge id=":1966956981_2" function="internal">
        <lane id=":1966956981_2_0" index="0" disallow="bicycle tram rail_urban rail rail_electric rail_fast ship" speed="3.65" length="4.67" shape="761.62,1391.24 761.87,1389.82 762.45,1389.13 763.34,1389.17 764.55,1389.95"/>
    </edge>
    <edge id=":1966956981_3" function="internal">
        <lane id=":1966956981_3_0" index="0" allow="bicycle" speed="8.33" length="0.27" width="1.00" shape="766.37,1388.87 766.48,1389.11"/>
        <lane id=":1966956981_3_1" index="1" disallow="bicycle tram rail_urban rail rail_electric rail_fast ship" speed="8.33" length="0.27" shape="764.44,1389.69 764.55,1389.95"/>
    </edge>
    <edge id=":1966956981_5" function="internal">
        <lane id=":1966956981_5_0" index="0" disallow="bicycle tram rail_urban rail rail_electric rail_fast ship" speed="3.65" length="4.67" shape="764.44,1389.69 764.18,1391.11 763.60,1391.79 762.71,1391.74 761.50,1390.95"/>
    </edge>
    <edge id=":1980757232_0" function="internal">
        <lane id=":1980757232_0_0" index="0" allow="bicycle" speed="5.88" length="7.28" width="1.00" shape="808.74,884.50 808.25,882.58 807.27,881.22 805.82,880.41 803.89,880.15"/>
    </edge>
    <edge id=":1980757232_1" function="internal">
        <lane id=":1980757232_1_0" index="0" allow="bicycle" speed="8.33" length="15.43" width="1.00" shape="808.74,884.50 806.94,869.18"/>
    </edge>
    <edge id=":1980757232_2" function="internal">
        <lane id=":1980757232_2_0" index="0" allow="bicycle" speed="8.22" length="17.25" width="1.00" shape="808.74,884.50 809.40,880.45 811.82,876.64 815.35,873.82 819.31,872.73"/>
    </edge>
    <edge id=":1980757232_3" function="internal">
        <lane id=":1980757232_3_0" index="0" disallow="bicycle tram rail_urban rail rail_electric rail_fast ship" speed="7.21" length="10.41" shape="810.83,884.26 810.12,881.52 808.72,879.57 806.64,878.42 803.86,878.05"/>
    </edge>
    <edge id=":1980757232_4" function="internal">
        <lane id=":1980757232_4_0" index="0" disallow="bicycle tram rail_urban rail rail_electric rail_fast ship" speed="8.33" length="15.43" shape="810.83,884.26 809.03,868.94"/>
    </edge>
    <edge id=":1980757232_5" function="internal">
        <lane id=":1980757232_5_0" index="0" disallow="bicycle tram rail_urban rail rail_electric rail_fast ship" speed="7.58" length="13.81" shape="810.83,884.26 811.35,881.01 813.29,877.96 816.12,875.70 819.29,874.83"/>
    </edge>
    <edge id=":1980757232_6" function="internal">
        <lane id=":1980757232_6_0" index="0" disallow="bicycle tram rail_urban rail rail_electric rail_fast ship" speed="3.65" length="4.67" shape="810.83,884.26 811.49,882.98 812.23,882.49 813.07,882.79 814.01,883.89"/>
    </edge>
    <edge id=":1980757232_7" function="internal">
        <lane id=":1980757232_7_0" index="0" allow="bicycle" speed="4.76" length="5.55" width="1.00" shape="819.25,880.13 817.71,880.34 816.68,881.00 816.14,882.10 816.09,883.65"/>
    </edge>
    <edge id=":1980757232_8" function="internal">
        <lane id=":1980757232_8_0" index="0" allow="bicycle" speed="8.33" length="15.36" width="1.00" shape="819.25,880.13 803.89,880.15"/>
    </edge>
    <edge id=":1980757232_9" function="internal">
        <lane id=":1980757232_9_0" index="0" allow="bicycle" speed="8.33" length="18.31" width="1.00" shape="819.25,880.13 814.35,879.42 810.66,877.35 808.19,873.94 806.94,869.18"/>
    </edge>
    <edge id=":1980757232_10" function="internal">
        <lane id=":1980757232_10_0" index="0" disallow="bicycle tram rail_urban rail rail_electric rail_fast ship" speed="6.32" length="9.25" shape="819.26,878.03 816.71,878.38 814.98,879.47 814.08,881.31 814.01,883.89"/>
    </edge>
    <edge id=":1980757232_11" function="internal">
        <lane id=":1980757232_11_0" index="0" disallow="bicycle tram rail_urban rail rail_electric rail_fast ship" speed="8.33" length="15.40" shape="819.26,878.03 803.86,878.05"/>
    </edge>
    <edge id=":1980757232_12" function="internal">
        <lane id=":1980757232_12_0" index="0" disallow="bicycle tram rail_urban rail rail_electric rail_fast ship" speed="8.33" length="15.22" shape="819.26,878.03 815.19,877.44 812.12,875.72 810.07,872.89 809.03,868.94"/>
    </edge>
    <edge id=":1980757232_13" function="internal">
        <lane id=":1980757232_13_0" index="0" disallow="bicycle tram rail_urban rail rail_electric rail_fast ship" speed="3.65" length="4.67" shape="819.26,878.03 818.07,877.22 817.68,876.42 818.08,875.62 819.29,874.83"/>
    </edge>
    <edge id=":1980757232_14" function="internal">
        <lane id=":1980757232_14_0" index="0" allow="bicycle" speed="6.00" length="7.43" width="1.00" shape="814.29,868.31 814.80,870.23 815.80,871.61 817.31,872.44 819.31,872.73"/>
    </edge>
    <edge id=":1980757232_15" function="internal">
        <lane id=":1980757232_15_0" index="0" allow="bicycle" speed="8.33" length="15.44" width="1.00" shape="814.29,868.31 816.09,883.65"/>
    </edge>
    <edge id=":1980757232_16" function="internal">
        <lane id=":1980757232_16_0" index="0" allow="bicycle" speed="8.25" length="17.17" width="1.00" shape="814.29,868.31 813.66,872.35 811.29,876.17 807.81,879.01 803.89,880.15"/>
    </edge>
    <edge id=":1980757232_17" function="internal">
        <lane id=":1980757232_17_0" index="0" disallow="bicycle tram rail_urban rail rail_electric rail_fast ship" speed="7.30" length="10.52" shape="812.20,868.56 812.92,871.28 814.35,873.24 816.47,874.42 819.29,874.83"/>
    </edge>
    <edge id=":1980757232_18" function="internal">
        <lane id=":1980757232_18_0" index="0" disallow="bicycle tram rail_urban rail rail_electric rail_fast ship" speed="8.33" length="15.44" shape="812.20,868.56 814.01,883.89"/>
    </edge>
    <edge id=":1980757232_19" function="internal">
        <lane id=":1980757232_19_0" index="0" disallow="bicycle tram rail_urban rail rail_electric rail_fast ship" speed="7.61" length="13.76" shape="812.20,868.56 811.70,871.80 809.80,874.86 807.01,877.14 803.86,878.05"/>
    </edge>
    <edge id=":1980757232_20" function="internal">
        <lane id=":1980757232_20_0" index="0" disallow="bicycle tram rail_urban rail rail_electric rail_fast ship" speed="3.65" length="4.67" shape="812.20,868.56 811.55,869.84 810.80,870.34 809.96,870.03 809.03,868.94"/>
    </edge>
    <edge id=":1980757232_21" function="internal">
        <lane id=":1980757232_21_0" index="0" allow="bicycle" speed="4.79" length="5.56" width="1.00" shape="803.80,872.75 805.33,872.52 806.37,871.84 806.90,870.73 806.94,869.18"/>
    </edge>
    <edge id=":1980757232_22" function="internal">
        <lane id=":1980757232_22_0" index="0" allow="bicycle" speed="8.33" length="15.51" width="1.00" shape="803.80,872.75 819.31,872.73"/>
    </edge>
    <edge id=":1980757232_23" function="internal">
        <lane id=":1980757232_23_0" index="0" allow="bicycle" speed="8.33" length="18.32" width="1.00" shape="803.80,872.75 808.70,873.39 812.38,875.42 814.84,878.84 816.09,883.65"/>
    </edge>
    <edge id=":1980757232_24" function="internal">
        <lane id=":1980757232_24_0" index="0" disallow="bicycle tram rail_urban rail rail_electric rail_fast ship" speed="6.34" length="9.22" shape="803.83,874.85 806.36,874.46 808.07,873.34 808.96,871.50 809.03,868.94"/>
    </edge>
    <edge id=":1980757232_25" function="internal">
        <lane id=":1980757232_25_0" index="0" disallow="bicycle tram rail_urban rail rail_electric rail_fast ship" speed="8.33" length="15.46" shape="803.83,874.85 819.29,874.83"/>
    </edge>
    <edge id=":1980757232_26" function="internal">
        <lane id=":1980757232_26_0" index="0" disallow="bicycle tram rail_urban rail rail_electric rail_fast ship" speed="8.33" length="15.19" shape="803.83,874.85 807.88,875.38 810.93,877.06 812.97,879.90 814.01,883.89"/>
    </edge>
    <edge id=":1980757232_27" function="internal">
        <lane id=":1980757232_27_0" index="0" disallow="bicycle tram rail_urban rail rail_electric rail_fast ship" speed="3.65" length="4.67" shape="803.83,874.85 805.04,875.64 805.44,876.44 805.05,877.24 803.86,878.05"/>
    </edge>
    <edge id=":26704483_0" function="internal">
        <lane id=":26704483_0_0" index="0" allow="bicycle" speed="8.33" length="17.08" width="1.00" shape="838.99,1091.09 839.50,1096.14 839.73,1099.61 839.65,1103.08 839.22,1108.12"/>
    </edge>
    <edge id=":26704483_1" function="internal">
        <lane id=":26704483_1_0" index="0" allow="bicycle" speed="8.33" length="11.39" width="1.00" shape="838.99,1091.09 838.81,1096.96 836.89,1100.98 835.98,1101.53"/>
    </edge>
    <edge id=":26704483_2" function="internal">
        <lane id=":26704483_2_0" index="0" disallow="bicycle tram rail_urban rail rail_electric rail_fast ship" speed="8.33" length="16.67" shape="836.90,1091.31 837.40,1096.23 837.63,1099.61 837.55,1103.00 837.13,1107.92"/>
    </edge>
    <edge id=":26704483_3" function="internal">
        <lane id=":26704483_3_0" index="0" disallow="bicycle tram rail_urban rail rail_electric rail_fast ship" speed="7.97" length="6.81" shape="836.90,1091.31 836.77,1096.08 835.91,1097.92"/>
    </edge>
    <edge id=":26704483_4" function="internal">
        <lane id=":26704483_4_0" index="0" disallow="bicycle tram rail_urban rail rail_electric rail_fast ship" speed="3.65" length="2.34" shape="836.90,1091.31 836.23,1092.58 835.47,1093.06"/>
    </edge>
    <edge id=":26704483_15" function="internal">
        <lane id=":26704483_15_0" index="0" allow="bicycle" speed="8.33" length="8.59" width="1.00" shape="835.98,1101.53 833.24,1103.18 827.85,1103.53"/>
    </edge>
    <edge id=":26704483_16" function="internal">
        <lane id=":26704483_16_0" index="0" disallow="bicycle tram rail_urban rail rail_electric rail_fast ship" speed="7.97" length="9.31" shape="835.91,1097.92 835.24,1099.36 832.33,1101.14 828.04,1101.44"/>
    </edge>
    <edge id=":26704483_17" function="internal">
        <lane id=":26704483_17_0" index="0" disallow="bicycle tram rail_urban rail rail_electric rail_fast ship" speed="3.65" length="2.34" shape="835.47,1093.06 834.64,1092.74 833.72,1091.63"/>
    </edge>
    <edge id=":26704483_5" function="internal">
        <lane id=":26704483_5_0" index="0" allow="bicycle" speed="4.96" length="6.34" width="1.00" shape="828.51,1096.16 830.05,1096.01 831.08,1095.24 831.61,1093.85 831.63,1091.84"/>
    </edge>
    <edge id=":26704483_6" function="internal">
        <lane id=":26704483_6_0" index="0" allow="bicycle" speed="8.33" length="18.33" width="1.00" shape="828.51,1096.16 833.59,1097.31 837.07,1099.68 838.94,1103.29 839.22,1108.12"/>
    </edge>
    <edge id=":26704483_7" function="internal">
        <lane id=":26704483_7_0" index="0" disallow="bicycle tram rail_urban rail rail_electric rail_fast ship" speed="6.47" length="10.21" shape="828.32,1098.26 830.95,1098.05 832.73,1096.87 833.65,1094.73 833.72,1091.63"/>
    </edge>
    <edge id=":26704483_8" function="internal">
        <lane id=":26704483_8_0" index="0" disallow="bicycle tram rail_urban rail rail_electric rail_fast ship" speed="8.17" length="14.92" shape="828.32,1098.26 832.49,1099.18 835.35,1101.10 836.89,1104.02 837.13,1107.92"/>
    </edge>
    <edge id=":26704483_9" function="internal">
        <lane id=":26704483_9_0" index="0" disallow="bicycle tram rail_urban rail rail_electric rail_fast ship" speed="3.65" length="4.67" shape="828.32,1098.26 829.45,1099.16 829.77,1099.99 829.30,1100.75 828.04,1101.44"/>
    </edge>
    <edge id=":26704483_10" function="internal">
        <lane id=":26704483_10_0" index="0" allow="bicycle" speed="5.28" length="6.34" width="1.00" shape="831.85,1107.41 831.73,1105.86 831.02,1104.70 829.73,1103.92 827.85,1103.53"/>
    </edge>
    <edge id=":26704483_11" function="internal">
        <lane id=":26704483_11_0" index="0" allow="bicycle" speed="8.33" length="15.62" width="1.00" shape="831.85,1107.41 832.24,1102.80 832.32,1099.62 832.10,1096.45 831.63,1091.84"/>
    </edge>
    <edge id=":26704483_12" function="internal">
        <lane id=":26704483_12_0" index="0" disallow="bicycle tram rail_urban rail rail_electric rail_fast ship" speed="6.72" length="3.78" shape="833.94,1107.61 833.77,1105.13 833.14,1104.00"/>
    </edge>
    <edge id=":26704483_13" function="internal">
        <lane id=":26704483_13_0" index="0" disallow="bicycle tram rail_urban rail rail_electric rail_fast ship" speed="8.33" length="16.04" shape="833.94,1107.61 834.34,1102.88 834.42,1099.62 834.20,1096.36 833.72,1091.63"/>
    </edge>
    <edge id=":26704483_14" function="internal">
        <lane id=":26704483_14_0" index="0" disallow="bicycle tram rail_urban rail rail_electric rail_fast ship" speed="3.65" length="2.34" shape="833.94,1107.61 834.85,1106.50 835.69,1106.17"/>
    </edge>
    <edge id=":26704483_18" function="internal">
        <lane id=":26704483_18_0" index="0" disallow="bicycle tram rail_urban rail rail_electric rail_fast ship" speed="6.72" length="5.96" shape="833.14,1104.00 832.74,1103.27 830.82,1102.04 828.04,1101.44"/>
    </edge>
    <edge id=":26704483_19" function="internal">
        <lane id=":26704483_19_0" index="0" disallow="bicycle tram rail_urban rail rail_electric rail_fast ship" speed="3.65" length="2.34" shape="835.69,1106.17 836.45,1106.65 837.13,1107.92"/>
    </edge>
    <edge id=":26704485_0" function="internal">
        <lane id=":26704485_0_0" index="0" allow="bicycle" speed="8.33" length="15.20" width="1.00" shape="958.59,876.84 943.51,878.84"/>
    </edge>
    <edge id=":26704485_1" function="internal">
        <lane id=":26704485_1_0" index="0" allow="bicycle" speed="8.33" length="22.69" width="1.00" shape="958.59,876.84 951.78,876.68 947.87,874.38 946.84,869.96 948.69,863.42"/>
    </edge>
    <edge id=":26704485_2" function="internal">
        <lane id=":26704485_2_0" index="0" disallow="bicycle tram rail_urban rail rail_electric rail_fast ship" speed="8.33" length="15.35" shape="958.36,874.75 943.14,876.78"/>
    </edge>
    <edge id=":26704485_3" function="internal">
        <lane id=":26704485_3_0" index="0" disallow="bicycle tram rail_urban rail rail_electric rail_fast ship" speed="7.60" length="17.75" shape="958.36,874.75 953.04,874.62 949.97,872.83 949.17,869.37 950.62,864.25"/>
    </edge>
    <edge id=":26704485_4" function="internal">
        <lane id=":26704485_4_0" index="0" disallow="bicycle tram rail_urban rail rail_electric rail_fast ship" speed="3.65" length="4.67" shape="958.36,874.75 957.08,874.09 956.60,873.33 956.91,872.50 958.01,871.57"/>
    </edge>
    <edge id=":26704485_5" function="internal">
        <lane id=":26704485_5_0" index="0" allow="bicycle" speed="4.16" length="5.28" width="1.00" shape="955.48,866.36 955.05,867.88 955.29,868.91 956.20,869.45 957.78,869.48"/>
    </edge>
    <edge id=":26704485_6" function="internal">
        <lane id=":26704485_6_0" index="0" allow="bicycle" speed="8.33" length="17.96" width="1.00" shape="955.48,866.36 952.91,871.34 950.06,875.08 946.93,877.58 943.51,878.84"/>
    </edge>
    <edge id=":26704485_7" function="internal">
        <lane id=":26704485_7_0" index="0" disallow="bicycle tram rail_urban rail rail_electric rail_fast ship" speed="5.93" length="10.22" shape="953.56,865.52 952.72,868.47 953.18,870.46 954.95,871.50 958.01,871.57"/>
    </edge>
    <edge id=":26704485_8" function="internal">
        <lane id=":26704485_8_0" index="0" disallow="bicycle tram rail_urban rail rail_electric rail_fast ship" speed="8.33" length="15.90" shape="953.56,865.52 951.25,870.04 948.75,873.42 946.04,875.67 943.14,876.78"/>
    </edge>
    <edge id=":26704485_9" function="internal">
        <lane id=":26704485_9_0" index="0" disallow="bicycle tram rail_urban rail rail_electric rail_fast ship" speed="3.65" length="4.67" shape="953.56,865.52 952.35,866.31 951.45,866.36 950.88,865.67 950.62,864.25"/>
    </edge>
    <edge id=":26704485_10" function="internal">
        <lane id=":26704485_10_0" index="0" allow="bicycle" speed="8.33" length="10.73" width="1.00" shape="942.20,871.56 943.81,870.84 945.43,869.24 947.06,866.76 948.69,863.42"/>
    </edge>
    <edge id=":26704485_11" function="internal">
        <lane id=":26704485_11_0" index="0" allow="bicycle" speed="8.33" length="15.73" width="1.00" shape="942.20,871.56 957.78,869.48"/>
    </edge>
    <edge id=":26704485_12" function="internal">
        <lane id=":26704485_12_0" index="0" disallow="bicycle tram rail_urban rail rail_electric rail_fast ship" speed="8.33" length="12.77" shape="942.57,873.63 944.70,872.75 946.74,870.89 948.72,868.06 950.62,864.25"/>
    </edge>
    <edge id=":26704485_13" function="internal">
        <lane id=":26704485_13_0" index="0" disallow="bicycle tram rail_urban rail rail_electric rail_fast ship" speed="8.33" length="15.58" shape="942.57,873.63 958.01,871.57"/>
    </edge>
    <edge id=":26704485_14" function="internal">
        <lane id=":26704485_14_0" index="0" disallow="bicycle tram rail_urban rail rail_electric rail_fast ship" speed="3.65" length="4.67" shape="942.57,873.63 943.89,874.20 944.43,874.92 944.18,875.78 943.14,876.78"/>
    </edge>
    <edge id=":26704524_0" function="internal">
        <lane id=":26704524_0_0" index="0" allow="bicycle" speed="13.89" length="15.14" width="1.00" shape="582.03,1085.36 580.20,1070.33"/>
    </edge>
    <edge id=":26704524_1" function="internal">
        <lane id=":26704524_1_0" index="0" allow="bicycle" speed="8.35" length="10.91" width="1.00" shape="582.03,1085.36 582.13,1079.14 584.25,1075.28 584.52,1075.18"/>
    </edge>
    <edge id=":26704524_2" function="internal">