<?xml version="1.0" encoding="UTF-8"?>

<!-- generated on Di 04 Mai 2021 15:50:58 CEST by Eclipse SUMO netedit Version v1_7_0+1228-0b1a97d77e
<configuration xmlns:xsi="http://www.w3.org/2001/XMLSchema-instance" xsi:noNamespaceSchemaLocation="http://sumo.dlr.de/xsd/netconvertConfiguration.xsd">

    <input>
        <sumo-net-file value="/home/kons/GIT/sumo/bismarck_traci/osm.net.xml"/>
    </input>

    <output>
        <output-file value="/home/kons/GIT/sumo/bismarck_traci/osm.net.xml"/>
    </output>

    <processing>
        <geometry.min-radius.fix.railways value="false"/>
        <geometry.max-grade.fix value="false"/>
        <offset.disable-normalization value="true"/>
        <lefthand value="false"/>
    </processing>

    <junctions>
        <no-turnarounds value="true"/>
        <junctions.corner-detail value="5"/>
        <junctions.limit-turn-speed value="5.5"/>
        <rectangular-lane-cut value="false"/>
    </junctions>

    <pedestrian>
        <walkingareas value="false"/>
    </pedestrian>

    <netedit>
        <route-files value="/home/kons/GIT/sumo/bismarck_traci/routes.rou.xml"/>
    </netedit>

    <report>
        <aggregate-warnings value="5"/>
    </report>

</configuration>
-->

<routes xmlns:xsi="http://www.w3.org/2001/XMLSchema-instance" xsi:noNamespaceSchemaLocation="http://sumo.dlr.de/xsd/routes_file.xsd">
    <route edges="52578336#5 109612315#0 109612315#1 109612315#2 109612315#3 109612315#9" color="yellow" id="route_0"/>
    <route edges="32909782#4 32909782#10 32909782#11 109612319#0 109612319#1 109612319#2" color="yellow" id="route_1"/>
    <route edges="52578336#5 109612315#0 109612315#1 109612315#2 109612315#3 4490162#0 4490162#1 4490162#2 4490162#3 4490162#4 747453201 37036260#0 37036260#1" color="yellow" id="route_2"/>
</routes>
